
---------- Begin Simulation Statistics ----------
final_tick                               128847999500                       # Number of ticks from beginning of simulation (restored from checkpoints and never reset)
host_inst_rate                                 316394                       # Simulator instruction rate (inst/s)
host_mem_usage                                 721952                       # Number of bytes of host memory used
host_op_rate                                   316405                       # Simulator op (including micro ops) rate (op/s)
host_seconds                                   316.06                       # Real time elapsed on the host
host_tick_rate                              407666828                       # Simulator tick rate (ticks/s)
sim_freq                                 1000000000000                       # Frequency of simulated ticks
sim_insts                                   100000001                       # Number of instructions simulated
sim_ops                                     100003447                       # Number of ops (including micro ops) simulated
sim_seconds                                  0.128848                       # Number of seconds simulated
sim_ticks                                128847999500                       # Number of ticks simulated
system.cpu.committedInsts                   100000001                       # Number of instructions committed
system.cpu.committedOps                     100003447                       # Number of ops (including micro ops) committed
system.cpu.cpi                               2.576960                       # CPI: cycles per instruction
system.cpu.discardedOps                         21167                       # Number of ops (including micro ops) which were discarded before commit
system.cpu.idleCycles                       142922040                       # Total number of cycles that the object has spent stopped
system.cpu.ipc                               0.388054                       # IPC: instructions per cycle
system.cpu.numCycles                        257695999                       # number of cpu cycles simulated
system.cpu.numFetchSuspends                         0                       # Number of times Execute suspended instruction fetching
system.cpu.numWorkItemsCompleted                    0                       # number of work items this cpu completed
system.cpu.numWorkItemsStarted                      0                       # number of work items this cpu started
system.cpu.op_class_0::No_OpClass                   0      0.00%      0.00% # Class of committed instruction
system.cpu.op_class_0::IntAlu                49995247     49.99%     49.99% # Class of committed instruction
system.cpu.op_class_0::IntMult                     85      0.00%     49.99% # Class of committed instruction
system.cpu.op_class_0::IntDiv                       0      0.00%     49.99% # Class of committed instruction
system.cpu.op_class_0::FloatAdd                     0      0.00%     49.99% # Class of committed instruction
system.cpu.op_class_0::FloatCmp                     0      0.00%     49.99% # Class of committed instruction
system.cpu.op_class_0::FloatCvt                     0      0.00%     49.99% # Class of committed instruction
system.cpu.op_class_0::FloatMult                    0      0.00%     49.99% # Class of committed instruction
system.cpu.op_class_0::FloatMultAcc                 0      0.00%     49.99% # Class of committed instruction
system.cpu.op_class_0::FloatDiv                     0      0.00%     49.99% # Class of committed instruction
system.cpu.op_class_0::FloatMisc                    0      0.00%     49.99% # Class of committed instruction
system.cpu.op_class_0::FloatSqrt                    0      0.00%     49.99% # Class of committed instruction
system.cpu.op_class_0::SimdAdd                      0      0.00%     49.99% # Class of committed instruction
system.cpu.op_class_0::SimdAddAcc                   0      0.00%     49.99% # Class of committed instruction
system.cpu.op_class_0::SimdAlu                      0      0.00%     49.99% # Class of committed instruction
system.cpu.op_class_0::SimdCmp                      0      0.00%     49.99% # Class of committed instruction
system.cpu.op_class_0::SimdCvt                      0      0.00%     49.99% # Class of committed instruction
system.cpu.op_class_0::SimdMisc                     0      0.00%     49.99% # Class of committed instruction
system.cpu.op_class_0::SimdMult                     0      0.00%     49.99% # Class of committed instruction
system.cpu.op_class_0::SimdMultAcc                  0      0.00%     49.99% # Class of committed instruction
system.cpu.op_class_0::SimdShift                    0      0.00%     49.99% # Class of committed instruction
system.cpu.op_class_0::SimdShiftAcc                 0      0.00%     49.99% # Class of committed instruction
system.cpu.op_class_0::SimdDiv                      0      0.00%     49.99% # Class of committed instruction
system.cpu.op_class_0::SimdSqrt                     0      0.00%     49.99% # Class of committed instruction
system.cpu.op_class_0::SimdFloatAdd                 0      0.00%     49.99% # Class of committed instruction
system.cpu.op_class_0::SimdFloatAlu                 0      0.00%     49.99% # Class of committed instruction
system.cpu.op_class_0::SimdFloatCmp                 2      0.00%     49.99% # Class of committed instruction
system.cpu.op_class_0::SimdFloatCvt                 0      0.00%     49.99% # Class of committed instruction
system.cpu.op_class_0::SimdFloatDiv                 0      0.00%     49.99% # Class of committed instruction
system.cpu.op_class_0::SimdFloatMisc                5      0.00%     49.99% # Class of committed instruction
system.cpu.op_class_0::SimdFloatMult                0      0.00%     49.99% # Class of committed instruction
system.cpu.op_class_0::SimdFloatMultAcc             0      0.00%     49.99% # Class of committed instruction
system.cpu.op_class_0::SimdFloatSqrt                0      0.00%     49.99% # Class of committed instruction
system.cpu.op_class_0::SimdReduceAdd                0      0.00%     49.99% # Class of committed instruction
system.cpu.op_class_0::SimdReduceAlu                0      0.00%     49.99% # Class of committed instruction
system.cpu.op_class_0::SimdReduceCmp                0      0.00%     49.99% # Class of committed instruction
system.cpu.op_class_0::SimdFloatReduceAdd            0      0.00%     49.99% # Class of committed instruction
system.cpu.op_class_0::SimdFloatReduceCmp            0      0.00%     49.99% # Class of committed instruction
system.cpu.op_class_0::SimdAes                      0      0.00%     49.99% # Class of committed instruction
system.cpu.op_class_0::SimdAesMix                   0      0.00%     49.99% # Class of committed instruction
system.cpu.op_class_0::SimdSha1Hash                 0      0.00%     49.99% # Class of committed instruction
system.cpu.op_class_0::SimdSha1Hash2                0      0.00%     49.99% # Class of committed instruction
system.cpu.op_class_0::SimdSha256Hash               0      0.00%     49.99% # Class of committed instruction
system.cpu.op_class_0::SimdSha256Hash2              0      0.00%     49.99% # Class of committed instruction
system.cpu.op_class_0::SimdShaSigma2                0      0.00%     49.99% # Class of committed instruction
system.cpu.op_class_0::SimdShaSigma3                0      0.00%     49.99% # Class of committed instruction
system.cpu.op_class_0::SimdPredAlu                  0      0.00%     49.99% # Class of committed instruction
system.cpu.op_class_0::MemRead               36892277     36.89%     86.88% # Class of committed instruction
system.cpu.op_class_0::MemWrite              13115831     13.12%    100.00% # Class of committed instruction
system.cpu.op_class_0::FloatMemRead                 0      0.00%    100.00% # Class of committed instruction
system.cpu.op_class_0::FloatMemWrite                0      0.00%    100.00% # Class of committed instruction
system.cpu.op_class_0::IprAccess                    0      0.00%    100.00% # Class of committed instruction
system.cpu.op_class_0::InstPrefetch                 0      0.00%    100.00% # Class of committed instruction
system.cpu.op_class_0::total                100003447                       # Class of committed instruction
system.cpu.tickCycles                       114773959                       # Number of cycles that the object actually ticked
system.cpu.workload.numSyscalls                    19                       # Number of system calls
system.membus.snoop_filter.hit_multi_requests            0                       # Number of requests hitting in the snoop filter with multiple (>1) holders of the requested data.
system.membus.snoop_filter.hit_multi_snoops            0                       # Number of snoops hitting in the snoop filter with multiple (>1) holders of the requested data.
system.membus.snoop_filter.hit_single_requests       711058                       # Number of requests hitting in the snoop filter with a single holder of the requested data.
system.membus.snoop_filter.hit_single_snoops            0                       # Number of snoops hitting in the snoop filter with a single holder of the requested data.
system.membus.snoop_filter.tot_requests       1455216                       # Total number of requests made to the snoop filter.
system.membus.snoop_filter.tot_snoops               0                       # Total number of snoops made to the snoop filter.
system.tol2bus.snoop_filter.hit_multi_requests           30                       # Number of requests hitting in the snoop filter with multiple (>1) holders of the requested data.
system.tol2bus.snoop_filter.hit_multi_snoops            1                       # Number of snoops hitting in the snoop filter with multiple (>1) holders of the requested data.
system.tol2bus.snoop_filter.hit_single_requests       742840                       # Number of requests hitting in the snoop filter with a single holder of the requested data.
system.tol2bus.snoop_filter.hit_single_snoops          331                       # Number of snoops hitting in the snoop filter with a single holder of the requested data.
system.tol2bus.snoop_filter.tot_requests      1487032                       # Total number of requests made to the snoop filter.
system.tol2bus.snoop_filter.tot_snoops            332                       # Total number of snoops made to the snoop filter.
system.clk_domain.clock                          1000                       # Clock period in ticks
system.cpu.branchPred.lookups                  606530                       # Number of BP lookups
system.cpu.branchPred.condPredicted            604442                       # Number of conditional branches predicted
system.cpu.branchPred.condIncorrect               817                       # Number of conditional branches incorrect
system.cpu.branchPred.BTBLookups               602356                       # Number of BTB lookups
system.cpu.branchPred.BTBHits                  601191                       # Number of BTB hits
system.cpu.branchPred.BTBHitPct             99.806593                       # BTB Hit Percentage
system.cpu.branchPred.RASUsed                     557                       # Number of times the RAS was used to get a target.
system.cpu.branchPred.RASIncorrect                  2                       # Number of incorrect RAS predictions.
system.cpu.branchPred.indirectLookups             364                       # Number of indirect predictor lookups.
system.cpu.branchPred.indirectHits                168                       # Number of indirect target hits.
system.cpu.branchPred.indirectMisses              196                       # Number of indirect misses.
system.cpu.branchPred.indirectMispredicted          104                       # Number of mispredicted indirect branches.
system.cpu.dcache.demand_hits::.cpu.data     47307507                       # number of demand (read+write) hits
system.cpu.dcache.demand_hits::total         47307507                       # number of demand (read+write) hits
system.cpu.dcache.overall_hits::.cpu.data     47307542                       # number of overall hits
system.cpu.dcache.overall_hits::total        47307542                       # number of overall hits
system.cpu.dcache.demand_misses::.cpu.data      1487577                       # number of demand (read+write) misses
system.cpu.dcache.demand_misses::total        1487577                       # number of demand (read+write) misses
system.cpu.dcache.overall_misses::.cpu.data      1487594                       # number of overall misses
system.cpu.dcache.overall_misses::total       1487594                       # number of overall misses
system.cpu.dcache.demand_miss_latency::.cpu.data 139858402500                       # number of demand (read+write) miss cycles
system.cpu.dcache.demand_miss_latency::total 139858402500                       # number of demand (read+write) miss cycles
system.cpu.dcache.overall_miss_latency::.cpu.data 139858402500                       # number of overall miss cycles
system.cpu.dcache.overall_miss_latency::total 139858402500                       # number of overall miss cycles
system.cpu.dcache.demand_accesses::.cpu.data     48795084                       # number of demand (read+write) accesses
system.cpu.dcache.demand_accesses::total     48795084                       # number of demand (read+write) accesses
system.cpu.dcache.overall_accesses::.cpu.data     48795136                       # number of overall (read+write) accesses
system.cpu.dcache.overall_accesses::total     48795136                       # number of overall (read+write) accesses
system.cpu.dcache.demand_miss_rate::.cpu.data     0.030486                       # miss rate for demand accesses
system.cpu.dcache.demand_miss_rate::total     0.030486                       # miss rate for demand accesses
system.cpu.dcache.overall_miss_rate::.cpu.data     0.030487                       # miss rate for overall accesses
system.cpu.dcache.overall_miss_rate::total     0.030487                       # miss rate for overall accesses
system.cpu.dcache.demand_avg_miss_latency::.cpu.data 94017.588669                       # average overall miss latency
system.cpu.dcache.demand_avg_miss_latency::total 94017.588669                       # average overall miss latency
system.cpu.dcache.overall_avg_miss_latency::.cpu.data 94016.514251                       # average overall miss latency
system.cpu.dcache.overall_avg_miss_latency::total 94016.514251                       # average overall miss latency
system.cpu.dcache.blocked_cycles::no_mshrs            0                       # number of cycles access was blocked
system.cpu.dcache.blocked_cycles::no_targets            0                       # number of cycles access was blocked
system.cpu.dcache.blocked::no_mshrs                 0                       # number of cycles access was blocked
system.cpu.dcache.blocked::no_targets               0                       # number of cycles access was blocked
system.cpu.dcache.avg_blocked_cycles::no_mshrs          nan                       # average number of cycles each access was blocked
system.cpu.dcache.avg_blocked_cycles::no_targets          nan                       # average number of cycles each access was blocked
system.cpu.dcache.writebacks::.writebacks       742743                       # number of writebacks
system.cpu.dcache.writebacks::total            742743                       # number of writebacks
system.cpu.dcache.demand_mshr_hits::.cpu.data       743745                       # number of demand (read+write) MSHR hits
system.cpu.dcache.demand_mshr_hits::total       743745                       # number of demand (read+write) MSHR hits
system.cpu.dcache.overall_mshr_hits::.cpu.data       743745                       # number of overall MSHR hits
system.cpu.dcache.overall_mshr_hits::total       743745                       # number of overall MSHR hits
system.cpu.dcache.demand_mshr_misses::.cpu.data       743832                       # number of demand (read+write) MSHR misses
system.cpu.dcache.demand_mshr_misses::total       743832                       # number of demand (read+write) MSHR misses
system.cpu.dcache.overall_mshr_misses::.cpu.data       743843                       # number of overall MSHR misses
system.cpu.dcache.overall_mshr_misses::total       743843                       # number of overall MSHR misses
system.cpu.dcache.demand_mshr_miss_latency::.cpu.data  70790010000                       # number of demand (read+write) MSHR miss cycles
system.cpu.dcache.demand_mshr_miss_latency::total  70790010000                       # number of demand (read+write) MSHR miss cycles
system.cpu.dcache.overall_mshr_miss_latency::.cpu.data  70790960000                       # number of overall MSHR miss cycles
system.cpu.dcache.overall_mshr_miss_latency::total  70790960000                       # number of overall MSHR miss cycles
system.cpu.dcache.demand_mshr_miss_rate::.cpu.data     0.015244                       # mshr miss rate for demand accesses
system.cpu.dcache.demand_mshr_miss_rate::total     0.015244                       # mshr miss rate for demand accesses
system.cpu.dcache.overall_mshr_miss_rate::.cpu.data     0.015244                       # mshr miss rate for overall accesses
system.cpu.dcache.overall_mshr_miss_rate::total     0.015244                       # mshr miss rate for overall accesses
system.cpu.dcache.demand_avg_mshr_miss_latency::.cpu.data 95169.352757                       # average overall mshr miss latency
system.cpu.dcache.demand_avg_mshr_miss_latency::total 95169.352757                       # average overall mshr miss latency
system.cpu.dcache.overall_avg_mshr_miss_latency::.cpu.data 95169.222538                       # average overall mshr miss latency
system.cpu.dcache.overall_avg_mshr_miss_latency::total 95169.222538                       # average overall mshr miss latency
system.cpu.dcache.replacements                 742820                       # number of replacements
system.cpu.dcache.ReadReq_hits::.cpu.data     35702521                       # number of ReadReq hits
system.cpu.dcache.ReadReq_hits::total        35702521                       # number of ReadReq hits
system.cpu.dcache.ReadReq_misses::.cpu.data           86                       # number of ReadReq misses
system.cpu.dcache.ReadReq_misses::total            86                       # number of ReadReq misses
system.cpu.dcache.ReadReq_miss_latency::.cpu.data      6469000                       # number of ReadReq miss cycles
system.cpu.dcache.ReadReq_miss_latency::total      6469000                       # number of ReadReq miss cycles
system.cpu.dcache.ReadReq_accesses::.cpu.data     35702607                       # number of ReadReq accesses(hits+misses)
system.cpu.dcache.ReadReq_accesses::total     35702607                       # number of ReadReq accesses(hits+misses)
system.cpu.dcache.ReadReq_miss_rate::.cpu.data     0.000002                       # miss rate for ReadReq accesses
system.cpu.dcache.ReadReq_miss_rate::total     0.000002                       # miss rate for ReadReq accesses
system.cpu.dcache.ReadReq_avg_miss_latency::.cpu.data 75220.930233                       # average ReadReq miss latency
system.cpu.dcache.ReadReq_avg_miss_latency::total 75220.930233                       # average ReadReq miss latency
system.cpu.dcache.ReadReq_mshr_hits::.cpu.data            7                       # number of ReadReq MSHR hits
system.cpu.dcache.ReadReq_mshr_hits::total            7                       # number of ReadReq MSHR hits
system.cpu.dcache.ReadReq_mshr_misses::.cpu.data           79                       # number of ReadReq MSHR misses
system.cpu.dcache.ReadReq_mshr_misses::total           79                       # number of ReadReq MSHR misses
system.cpu.dcache.ReadReq_mshr_miss_latency::.cpu.data      5773500                       # number of ReadReq MSHR miss cycles
system.cpu.dcache.ReadReq_mshr_miss_latency::total      5773500                       # number of ReadReq MSHR miss cycles
system.cpu.dcache.ReadReq_mshr_miss_rate::.cpu.data     0.000002                       # mshr miss rate for ReadReq accesses
system.cpu.dcache.ReadReq_mshr_miss_rate::total     0.000002                       # mshr miss rate for ReadReq accesses
system.cpu.dcache.ReadReq_avg_mshr_miss_latency::.cpu.data 73082.278481                       # average ReadReq mshr miss latency
system.cpu.dcache.ReadReq_avg_mshr_miss_latency::total 73082.278481                       # average ReadReq mshr miss latency
system.cpu.dcache.WriteReq_hits::.cpu.data     11604986                       # number of WriteReq hits
system.cpu.dcache.WriteReq_hits::total       11604986                       # number of WriteReq hits
system.cpu.dcache.WriteReq_misses::.cpu.data      1487491                       # number of WriteReq misses
system.cpu.dcache.WriteReq_misses::total      1487491                       # number of WriteReq misses
system.cpu.dcache.WriteReq_miss_latency::.cpu.data 139851933500                       # number of WriteReq miss cycles
system.cpu.dcache.WriteReq_miss_latency::total 139851933500                       # number of WriteReq miss cycles
system.cpu.dcache.WriteReq_accesses::.cpu.data     13092477                       # number of WriteReq accesses(hits+misses)
system.cpu.dcache.WriteReq_accesses::total     13092477                       # number of WriteReq accesses(hits+misses)
system.cpu.dcache.WriteReq_miss_rate::.cpu.data     0.113614                       # miss rate for WriteReq accesses
system.cpu.dcache.WriteReq_miss_rate::total     0.113614                       # miss rate for WriteReq accesses
system.cpu.dcache.WriteReq_avg_miss_latency::.cpu.data 94018.675407                       # average WriteReq miss latency
system.cpu.dcache.WriteReq_avg_miss_latency::total 94018.675407                       # average WriteReq miss latency
system.cpu.dcache.WriteReq_mshr_hits::.cpu.data       743738                       # number of WriteReq MSHR hits
system.cpu.dcache.WriteReq_mshr_hits::total       743738                       # number of WriteReq MSHR hits
system.cpu.dcache.WriteReq_mshr_misses::.cpu.data       743753                       # number of WriteReq MSHR misses
system.cpu.dcache.WriteReq_mshr_misses::total       743753                       # number of WriteReq MSHR misses
system.cpu.dcache.WriteReq_mshr_miss_latency::.cpu.data  70784236500                       # number of WriteReq MSHR miss cycles
system.cpu.dcache.WriteReq_mshr_miss_latency::total  70784236500                       # number of WriteReq MSHR miss cycles
system.cpu.dcache.WriteReq_mshr_miss_rate::.cpu.data     0.056808                       # mshr miss rate for WriteReq accesses
system.cpu.dcache.WriteReq_mshr_miss_rate::total     0.056808                       # mshr miss rate for WriteReq accesses
system.cpu.dcache.WriteReq_avg_mshr_miss_latency::.cpu.data 95171.698803                       # average WriteReq mshr miss latency
system.cpu.dcache.WriteReq_avg_mshr_miss_latency::total 95171.698803                       # average WriteReq mshr miss latency
system.cpu.dcache.SoftPFReq_hits::.cpu.data           35                       # number of SoftPFReq hits
system.cpu.dcache.SoftPFReq_hits::total            35                       # number of SoftPFReq hits
system.cpu.dcache.SoftPFReq_misses::.cpu.data           17                       # number of SoftPFReq misses
system.cpu.dcache.SoftPFReq_misses::total           17                       # number of SoftPFReq misses
system.cpu.dcache.SoftPFReq_accesses::.cpu.data           52                       # number of SoftPFReq accesses(hits+misses)
system.cpu.dcache.SoftPFReq_accesses::total           52                       # number of SoftPFReq accesses(hits+misses)
system.cpu.dcache.SoftPFReq_miss_rate::.cpu.data     0.326923                       # miss rate for SoftPFReq accesses
system.cpu.dcache.SoftPFReq_miss_rate::total     0.326923                       # miss rate for SoftPFReq accesses
system.cpu.dcache.SoftPFReq_mshr_misses::.cpu.data           11                       # number of SoftPFReq MSHR misses
system.cpu.dcache.SoftPFReq_mshr_misses::total           11                       # number of SoftPFReq MSHR misses
system.cpu.dcache.SoftPFReq_mshr_miss_latency::.cpu.data       950000                       # number of SoftPFReq MSHR miss cycles
system.cpu.dcache.SoftPFReq_mshr_miss_latency::total       950000                       # number of SoftPFReq MSHR miss cycles
system.cpu.dcache.SoftPFReq_mshr_miss_rate::.cpu.data     0.211538                       # mshr miss rate for SoftPFReq accesses
system.cpu.dcache.SoftPFReq_mshr_miss_rate::total     0.211538                       # mshr miss rate for SoftPFReq accesses
system.cpu.dcache.SoftPFReq_avg_mshr_miss_latency::.cpu.data 86363.636364                       # average SoftPFReq mshr miss latency
system.cpu.dcache.SoftPFReq_avg_mshr_miss_latency::total 86363.636364                       # average SoftPFReq mshr miss latency
system.cpu.dcache.LoadLockedReq_hits::.cpu.data           13                       # number of LoadLockedReq hits
system.cpu.dcache.LoadLockedReq_hits::total           13                       # number of LoadLockedReq hits
system.cpu.dcache.LoadLockedReq_misses::.cpu.data            1                       # number of LoadLockedReq misses
system.cpu.dcache.LoadLockedReq_misses::total            1                       # number of LoadLockedReq misses
system.cpu.dcache.LoadLockedReq_miss_latency::.cpu.data        91500                       # number of LoadLockedReq miss cycles
system.cpu.dcache.LoadLockedReq_miss_latency::total        91500                       # number of LoadLockedReq miss cycles
system.cpu.dcache.LoadLockedReq_accesses::.cpu.data           14                       # number of LoadLockedReq accesses(hits+misses)
system.cpu.dcache.LoadLockedReq_accesses::total           14                       # number of LoadLockedReq accesses(hits+misses)
system.cpu.dcache.LoadLockedReq_miss_rate::.cpu.data     0.071429                       # miss rate for LoadLockedReq accesses
system.cpu.dcache.LoadLockedReq_miss_rate::total     0.071429                       # miss rate for LoadLockedReq accesses
system.cpu.dcache.LoadLockedReq_avg_miss_latency::.cpu.data        91500                       # average LoadLockedReq miss latency
system.cpu.dcache.LoadLockedReq_avg_miss_latency::total        91500                       # average LoadLockedReq miss latency
system.cpu.dcache.LoadLockedReq_mshr_misses::.cpu.data            1                       # number of LoadLockedReq MSHR misses
system.cpu.dcache.LoadLockedReq_mshr_misses::total            1                       # number of LoadLockedReq MSHR misses
system.cpu.dcache.LoadLockedReq_mshr_miss_latency::.cpu.data        90500                       # number of LoadLockedReq MSHR miss cycles
system.cpu.dcache.LoadLockedReq_mshr_miss_latency::total        90500                       # number of LoadLockedReq MSHR miss cycles
system.cpu.dcache.LoadLockedReq_mshr_miss_rate::.cpu.data     0.071429                       # mshr miss rate for LoadLockedReq accesses
system.cpu.dcache.LoadLockedReq_mshr_miss_rate::total     0.071429                       # mshr miss rate for LoadLockedReq accesses
system.cpu.dcache.LoadLockedReq_avg_mshr_miss_latency::.cpu.data        90500                       # average LoadLockedReq mshr miss latency
system.cpu.dcache.LoadLockedReq_avg_mshr_miss_latency::total        90500                       # average LoadLockedReq mshr miss latency
system.cpu.dcache.StoreCondReq_hits::.cpu.data           14                       # number of StoreCondReq hits
system.cpu.dcache.StoreCondReq_hits::total           14                       # number of StoreCondReq hits
system.cpu.dcache.StoreCondReq_accesses::.cpu.data           14                       # number of StoreCondReq accesses(hits+misses)
system.cpu.dcache.StoreCondReq_accesses::total           14                       # number of StoreCondReq accesses(hits+misses)
system.cpu.dcache.power_state.pwrStateResidencyTicks::UNDEFINED 128847999500                       # Cumulative time (in ticks) in various power states
system.cpu.dcache.tags.tagsinuse          1023.117069                       # Cycle average of tags in use
system.cpu.dcache.tags.total_refs            48051413                       # Total number of references to valid blocks.
system.cpu.dcache.tags.sampled_refs            743844                       # Sample count of references to valid blocks.
system.cpu.dcache.tags.avg_refs             64.598777                       # Average number of references to valid blocks.
system.cpu.dcache.tags.warmup_cycle            210500                       # Cycle when the warmup percentage was hit.
system.cpu.dcache.tags.occ_blocks::.cpu.data  1023.117069                       # Average occupied blocks per requestor
system.cpu.dcache.tags.occ_percent::.cpu.data     0.999138                       # Average percentage of cache occupancy
system.cpu.dcache.tags.occ_percent::total     0.999138                       # Average percentage of cache occupancy
system.cpu.dcache.tags.occ_task_id_blocks::1024         1024                       # Occupied blocks per task id
system.cpu.dcache.tags.age_task_id_blocks_1024::0           56                       # Occupied blocks per task id
system.cpu.dcache.tags.age_task_id_blocks_1024::1          521                       # Occupied blocks per task id
system.cpu.dcache.tags.age_task_id_blocks_1024::2          444                       # Occupied blocks per task id
system.cpu.dcache.tags.age_task_id_blocks_1024::4            3                       # Occupied blocks per task id
system.cpu.dcache.tags.occ_task_id_percent::1024            1                       # Percentage of cache occupancy per task id
system.cpu.dcache.tags.tag_accesses          98334172                       # Number of tag accesses
system.cpu.dcache.tags.data_accesses         98334172                       # Number of data accesses
system.cpu.dcache.tags.power_state.pwrStateResidencyTicks::UNDEFINED 128847999500                       # Cumulative time (in ticks) in various power states
system.cpu.dtb.instHits                             0                       # ITB inst hits
system.cpu.dtb.instMisses                           0                       # ITB inst misses
system.cpu.dtb.readHits                             0                       # DTB read hits
system.cpu.dtb.readMisses                           0                       # DTB read misses
system.cpu.dtb.writeHits                            0                       # DTB write hits
system.cpu.dtb.writeMisses                          0                       # DTB write misses
system.cpu.dtb.inserts                              0                       # Number of times an entry is inserted into the TLB
system.cpu.dtb.flushTlb                             0                       # Number of times complete TLB was flushed
system.cpu.dtb.flushTlbMva                          0                       # Number of times TLB was flushed by MVA
system.cpu.dtb.flushTlbMvaAsid                      0                       # Number of times TLB was flushed by MVA & ASID
system.cpu.dtb.flushTlbAsid                         0                       # Number of times TLB was flushed by ASID
system.cpu.dtb.flushedEntries                       0                       # Number of entries that have been flushed from TLB
system.cpu.dtb.alignFaults                          0                       # Number of TLB faults due to alignment restrictions
system.cpu.dtb.prefetchFaults                       0                       # Number of TLB faults due to prefetch
system.cpu.dtb.domainFaults                         0                       # Number of TLB faults due to domain restrictions
system.cpu.dtb.permsFaults                          0                       # Number of TLB faults due to permissions restrictions
system.cpu.dtb.readAccesses                         0                       # DTB read accesses
system.cpu.dtb.writeAccesses                        0                       # DTB write accesses
system.cpu.dtb.instAccesses                         0                       # ITB inst accesses
system.cpu.dtb.hits                                 0                       # Total TLB (inst and data) hits
system.cpu.dtb.misses                               0                       # Total TLB (inst and data) misses
system.cpu.dtb.accesses                             0                       # Total TLB (inst and data) accesses
system.cpu.dtb.stage2_mmu.stage2_tlb.instHits            0                       # ITB inst hits
system.cpu.dtb.stage2_mmu.stage2_tlb.instMisses            0                       # ITB inst misses
system.cpu.dtb.stage2_mmu.stage2_tlb.readHits            0                       # DTB read hits
system.cpu.dtb.stage2_mmu.stage2_tlb.readMisses            0                       # DTB read misses
system.cpu.dtb.stage2_mmu.stage2_tlb.writeHits            0                       # DTB write hits
system.cpu.dtb.stage2_mmu.stage2_tlb.writeMisses            0                       # DTB write misses
system.cpu.dtb.stage2_mmu.stage2_tlb.inserts            0                       # Number of times an entry is inserted into the TLB
system.cpu.dtb.stage2_mmu.stage2_tlb.flushTlb            0                       # Number of times complete TLB was flushed
system.cpu.dtb.stage2_mmu.stage2_tlb.flushTlbMva            0                       # Number of times TLB was flushed by MVA
system.cpu.dtb.stage2_mmu.stage2_tlb.flushTlbMvaAsid            0                       # Number of times TLB was flushed by MVA & ASID
system.cpu.dtb.stage2_mmu.stage2_tlb.flushTlbAsid            0                       # Number of times TLB was flushed by ASID
system.cpu.dtb.stage2_mmu.stage2_tlb.flushedEntries            0                       # Number of entries that have been flushed from TLB
system.cpu.dtb.stage2_mmu.stage2_tlb.alignFaults            0                       # Number of TLB faults due to alignment restrictions
system.cpu.dtb.stage2_mmu.stage2_tlb.prefetchFaults            0                       # Number of TLB faults due to prefetch
system.cpu.dtb.stage2_mmu.stage2_tlb.domainFaults            0                       # Number of TLB faults due to domain restrictions
system.cpu.dtb.stage2_mmu.stage2_tlb.permsFaults            0                       # Number of TLB faults due to permissions restrictions
system.cpu.dtb.stage2_mmu.stage2_tlb.readAccesses            0                       # DTB read accesses
system.cpu.dtb.stage2_mmu.stage2_tlb.writeAccesses            0                       # DTB write accesses
system.cpu.dtb.stage2_mmu.stage2_tlb.instAccesses            0                       # ITB inst accesses
system.cpu.dtb.stage2_mmu.stage2_tlb.hits            0                       # Total TLB (inst and data) hits
system.cpu.dtb.stage2_mmu.stage2_tlb.misses            0                       # Total TLB (inst and data) misses
system.cpu.dtb.stage2_mmu.stage2_tlb.accesses            0                       # Total TLB (inst and data) accesses
system.cpu.dtb.stage2_mmu.stage2_tlb.walker.walks            0                       # Table walker walks requested
system.cpu.dtb.stage2_mmu.stage2_tlb.walker.requestOrigin_Requested::Data            0                       # Table walker requests started/completed, data/inst
system.cpu.dtb.stage2_mmu.stage2_tlb.walker.requestOrigin_Requested::Inst            0                       # Table walker requests started/completed, data/inst
system.cpu.dtb.stage2_mmu.stage2_tlb.walker.requestOrigin_Requested::total            0                       # Table walker requests started/completed, data/inst
system.cpu.dtb.stage2_mmu.stage2_tlb.walker.requestOrigin_Completed::Data            0                       # Table walker requests started/completed, data/inst
system.cpu.dtb.stage2_mmu.stage2_tlb.walker.requestOrigin_Completed::Inst            0                       # Table walker requests started/completed, data/inst
system.cpu.dtb.stage2_mmu.stage2_tlb.walker.requestOrigin_Completed::total            0                       # Table walker requests started/completed, data/inst
system.cpu.dtb.stage2_mmu.stage2_tlb.walker.requestOrigin::total            0                       # Table walker requests started/completed, data/inst
system.cpu.dtb.stage2_mmu.stage2_tlb.walker.power_state.pwrStateResidencyTicks::UNDEFINED 128847999500                       # Cumulative time (in ticks) in various power states
system.cpu.dtb.walker.walks                         0                       # Table walker walks requested
system.cpu.dtb.walker.requestOrigin_Requested::Data            0                       # Table walker requests started/completed, data/inst
system.cpu.dtb.walker.requestOrigin_Requested::Inst            0                       # Table walker requests started/completed, data/inst
system.cpu.dtb.walker.requestOrigin_Requested::total            0                       # Table walker requests started/completed, data/inst
system.cpu.dtb.walker.requestOrigin_Completed::Data            0                       # Table walker requests started/completed, data/inst
system.cpu.dtb.walker.requestOrigin_Completed::Inst            0                       # Table walker requests started/completed, data/inst
system.cpu.dtb.walker.requestOrigin_Completed::total            0                       # Table walker requests started/completed, data/inst
system.cpu.dtb.walker.requestOrigin::total            0                       # Table walker requests started/completed, data/inst
system.cpu.dtb.walker.power_state.pwrStateResidencyTicks::UNDEFINED 128847999500                       # Cumulative time (in ticks) in various power states
system.cpu.fetch2.intInstructions            49670136                       # Number of integer instructions successfully decoded
system.cpu.fetch2.fpInstructions                    0                       # Number of floating point instructions successfully decoded
system.cpu.fetch2.vecInstructions                   0                       # Number of SIMD instructions successfully decoded
system.cpu.fetch2.loadInstructions           37092502                       # Number of memory load instructions successfully decoded
system.cpu.fetch2.storeInstructions          13161079                       # Number of memory store instructions successfully decoded
system.cpu.fetch2.amoInstructions                   0                       # Number of memory atomic instructions successfully decoded
system.cpu.icache.demand_hits::.cpu.inst      3651354                       # number of demand (read+write) hits
system.cpu.icache.demand_hits::total          3651354                       # number of demand (read+write) hits
system.cpu.icache.overall_hits::.cpu.inst      3651354                       # number of overall hits
system.cpu.icache.overall_hits::total         3651354                       # number of overall hits
system.cpu.icache.demand_misses::.cpu.inst          349                       # number of demand (read+write) misses
system.cpu.icache.demand_misses::total            349                       # number of demand (read+write) misses
system.cpu.icache.overall_misses::.cpu.inst          349                       # number of overall misses
system.cpu.icache.overall_misses::total           349                       # number of overall misses
system.cpu.icache.demand_miss_latency::.cpu.inst     28675500                       # number of demand (read+write) miss cycles
system.cpu.icache.demand_miss_latency::total     28675500                       # number of demand (read+write) miss cycles
system.cpu.icache.overall_miss_latency::.cpu.inst     28675500                       # number of overall miss cycles
system.cpu.icache.overall_miss_latency::total     28675500                       # number of overall miss cycles
system.cpu.icache.demand_accesses::.cpu.inst      3651703                       # number of demand (read+write) accesses
system.cpu.icache.demand_accesses::total      3651703                       # number of demand (read+write) accesses
system.cpu.icache.overall_accesses::.cpu.inst      3651703                       # number of overall (read+write) accesses
system.cpu.icache.overall_accesses::total      3651703                       # number of overall (read+write) accesses
system.cpu.icache.demand_miss_rate::.cpu.inst     0.000096                       # miss rate for demand accesses
system.cpu.icache.demand_miss_rate::total     0.000096                       # miss rate for demand accesses
system.cpu.icache.overall_miss_rate::.cpu.inst     0.000096                       # miss rate for overall accesses
system.cpu.icache.overall_miss_rate::total     0.000096                       # miss rate for overall accesses
system.cpu.icache.demand_avg_miss_latency::.cpu.inst 82164.756447                       # average overall miss latency
system.cpu.icache.demand_avg_miss_latency::total 82164.756447                       # average overall miss latency
system.cpu.icache.overall_avg_miss_latency::.cpu.inst 82164.756447                       # average overall miss latency
system.cpu.icache.overall_avg_miss_latency::total 82164.756447                       # average overall miss latency
system.cpu.icache.blocked_cycles::no_mshrs            0                       # number of cycles access was blocked
system.cpu.icache.blocked_cycles::no_targets            0                       # number of cycles access was blocked
system.cpu.icache.blocked::no_mshrs                 0                       # number of cycles access was blocked
system.cpu.icache.blocked::no_targets               0                       # number of cycles access was blocked
system.cpu.icache.avg_blocked_cycles::no_mshrs          nan                       # average number of cycles each access was blocked
system.cpu.icache.avg_blocked_cycles::no_targets          nan                       # average number of cycles each access was blocked
system.cpu.icache.writebacks::.writebacks           19                       # number of writebacks
system.cpu.icache.writebacks::total                19                       # number of writebacks
system.cpu.icache.demand_mshr_misses::.cpu.inst          349                       # number of demand (read+write) MSHR misses
system.cpu.icache.demand_mshr_misses::total          349                       # number of demand (read+write) MSHR misses
system.cpu.icache.overall_mshr_misses::.cpu.inst          349                       # number of overall MSHR misses
system.cpu.icache.overall_mshr_misses::total          349                       # number of overall MSHR misses
system.cpu.icache.demand_mshr_miss_latency::.cpu.inst     28326500                       # number of demand (read+write) MSHR miss cycles
system.cpu.icache.demand_mshr_miss_latency::total     28326500                       # number of demand (read+write) MSHR miss cycles
system.cpu.icache.overall_mshr_miss_latency::.cpu.inst     28326500                       # number of overall MSHR miss cycles
system.cpu.icache.overall_mshr_miss_latency::total     28326500                       # number of overall MSHR miss cycles
system.cpu.icache.demand_mshr_miss_rate::.cpu.inst     0.000096                       # mshr miss rate for demand accesses
system.cpu.icache.demand_mshr_miss_rate::total     0.000096                       # mshr miss rate for demand accesses
system.cpu.icache.overall_mshr_miss_rate::.cpu.inst     0.000096                       # mshr miss rate for overall accesses
system.cpu.icache.overall_mshr_miss_rate::total     0.000096                       # mshr miss rate for overall accesses
system.cpu.icache.demand_avg_mshr_miss_latency::.cpu.inst 81164.756447                       # average overall mshr miss latency
system.cpu.icache.demand_avg_mshr_miss_latency::total 81164.756447                       # average overall mshr miss latency
system.cpu.icache.overall_avg_mshr_miss_latency::.cpu.inst 81164.756447                       # average overall mshr miss latency
system.cpu.icache.overall_avg_mshr_miss_latency::total 81164.756447                       # average overall mshr miss latency
system.cpu.icache.replacements                     19                       # number of replacements
system.cpu.icache.ReadReq_hits::.cpu.inst      3651354                       # number of ReadReq hits
system.cpu.icache.ReadReq_hits::total         3651354                       # number of ReadReq hits
system.cpu.icache.ReadReq_misses::.cpu.inst          349                       # number of ReadReq misses
system.cpu.icache.ReadReq_misses::total           349                       # number of ReadReq misses
system.cpu.icache.ReadReq_miss_latency::.cpu.inst     28675500                       # number of ReadReq miss cycles
system.cpu.icache.ReadReq_miss_latency::total     28675500                       # number of ReadReq miss cycles
system.cpu.icache.ReadReq_accesses::.cpu.inst      3651703                       # number of ReadReq accesses(hits+misses)
system.cpu.icache.ReadReq_accesses::total      3651703                       # number of ReadReq accesses(hits+misses)
system.cpu.icache.ReadReq_miss_rate::.cpu.inst     0.000096                       # miss rate for ReadReq accesses
system.cpu.icache.ReadReq_miss_rate::total     0.000096                       # miss rate for ReadReq accesses
system.cpu.icache.ReadReq_avg_miss_latency::.cpu.inst 82164.756447                       # average ReadReq miss latency
system.cpu.icache.ReadReq_avg_miss_latency::total 82164.756447                       # average ReadReq miss latency
system.cpu.icache.ReadReq_mshr_misses::.cpu.inst          349                       # number of ReadReq MSHR misses
system.cpu.icache.ReadReq_mshr_misses::total          349                       # number of ReadReq MSHR misses
system.cpu.icache.ReadReq_mshr_miss_latency::.cpu.inst     28326500                       # number of ReadReq MSHR miss cycles
system.cpu.icache.ReadReq_mshr_miss_latency::total     28326500                       # number of ReadReq MSHR miss cycles
system.cpu.icache.ReadReq_mshr_miss_rate::.cpu.inst     0.000096                       # mshr miss rate for ReadReq accesses
system.cpu.icache.ReadReq_mshr_miss_rate::total     0.000096                       # mshr miss rate for ReadReq accesses
system.cpu.icache.ReadReq_avg_mshr_miss_latency::.cpu.inst 81164.756447                       # average ReadReq mshr miss latency
system.cpu.icache.ReadReq_avg_mshr_miss_latency::total 81164.756447                       # average ReadReq mshr miss latency
system.cpu.icache.power_state.pwrStateResidencyTicks::UNDEFINED 128847999500                       # Cumulative time (in ticks) in various power states
system.cpu.icache.tags.tagsinuse           329.945811                       # Cycle average of tags in use
system.cpu.icache.tags.total_refs             3651703                       # Total number of references to valid blocks.
system.cpu.icache.tags.sampled_refs               349                       # Sample count of references to valid blocks.
system.cpu.icache.tags.avg_refs          10463.332378                       # Average number of references to valid blocks.
system.cpu.icache.tags.warmup_cycle             92500                       # Cycle when the warmup percentage was hit.
system.cpu.icache.tags.occ_blocks::.cpu.inst   329.945811                       # Average occupied blocks per requestor
system.cpu.icache.tags.occ_percent::.cpu.inst     0.322213                       # Average percentage of cache occupancy
system.cpu.icache.tags.occ_percent::total     0.322213                       # Average percentage of cache occupancy
system.cpu.icache.tags.occ_task_id_blocks::1024          330                       # Occupied blocks per task id
system.cpu.icache.tags.age_task_id_blocks_1024::4          330                       # Occupied blocks per task id
system.cpu.icache.tags.occ_task_id_percent::1024     0.322266                       # Percentage of cache occupancy per task id
system.cpu.icache.tags.tag_accesses           7303755                       # Number of tag accesses
system.cpu.icache.tags.data_accesses          7303755                       # Number of data accesses
system.cpu.icache.tags.power_state.pwrStateResidencyTicks::UNDEFINED 128847999500                       # Cumulative time (in ticks) in various power states
system.cpu.itb.instHits                             0                       # ITB inst hits
system.cpu.itb.instMisses                           0                       # ITB inst misses
system.cpu.itb.readHits                             0                       # DTB read hits
system.cpu.itb.readMisses                           0                       # DTB read misses
system.cpu.itb.writeHits                            0                       # DTB write hits
system.cpu.itb.writeMisses                          0                       # DTB write misses
system.cpu.itb.inserts                              0                       # Number of times an entry is inserted into the TLB
system.cpu.itb.flushTlb                             0                       # Number of times complete TLB was flushed
system.cpu.itb.flushTlbMva                          0                       # Number of times TLB was flushed by MVA
system.cpu.itb.flushTlbMvaAsid                      0                       # Number of times TLB was flushed by MVA & ASID
system.cpu.itb.flushTlbAsid                         0                       # Number of times TLB was flushed by ASID
system.cpu.itb.flushedEntries                       0                       # Number of entries that have been flushed from TLB
system.cpu.itb.alignFaults                          0                       # Number of TLB faults due to alignment restrictions
system.cpu.itb.prefetchFaults                       0                       # Number of TLB faults due to prefetch
system.cpu.itb.domainFaults                         0                       # Number of TLB faults due to domain restrictions
system.cpu.itb.permsFaults                          0                       # Number of TLB faults due to permissions restrictions
system.cpu.itb.readAccesses                         0                       # DTB read accesses
system.cpu.itb.writeAccesses                        0                       # DTB write accesses
system.cpu.itb.instAccesses                         0                       # ITB inst accesses
system.cpu.itb.hits                                 0                       # Total TLB (inst and data) hits
system.cpu.itb.misses                               0                       # Total TLB (inst and data) misses
system.cpu.itb.accesses                             0                       # Total TLB (inst and data) accesses
system.cpu.itb.stage2_mmu.stage2_tlb.instHits            0                       # ITB inst hits
system.cpu.itb.stage2_mmu.stage2_tlb.instMisses            0                       # ITB inst misses
system.cpu.itb.stage2_mmu.stage2_tlb.readHits            0                       # DTB read hits
system.cpu.itb.stage2_mmu.stage2_tlb.readMisses            0                       # DTB read misses
system.cpu.itb.stage2_mmu.stage2_tlb.writeHits            0                       # DTB write hits
system.cpu.itb.stage2_mmu.stage2_tlb.writeMisses            0                       # DTB write misses
system.cpu.itb.stage2_mmu.stage2_tlb.inserts            0                       # Number of times an entry is inserted into the TLB
system.cpu.itb.stage2_mmu.stage2_tlb.flushTlb            0                       # Number of times complete TLB was flushed
system.cpu.itb.stage2_mmu.stage2_tlb.flushTlbMva            0                       # Number of times TLB was flushed by MVA
system.cpu.itb.stage2_mmu.stage2_tlb.flushTlbMvaAsid            0                       # Number of times TLB was flushed by MVA & ASID
system.cpu.itb.stage2_mmu.stage2_tlb.flushTlbAsid            0                       # Number of times TLB was flushed by ASID
system.cpu.itb.stage2_mmu.stage2_tlb.flushedEntries            0                       # Number of entries that have been flushed from TLB
system.cpu.itb.stage2_mmu.stage2_tlb.alignFaults            0                       # Number of TLB faults due to alignment restrictions
system.cpu.itb.stage2_mmu.stage2_tlb.prefetchFaults            0                       # Number of TLB faults due to prefetch
system.cpu.itb.stage2_mmu.stage2_tlb.domainFaults            0                       # Number of TLB faults due to domain restrictions
system.cpu.itb.stage2_mmu.stage2_tlb.permsFaults            0                       # Number of TLB faults due to permissions restrictions
system.cpu.itb.stage2_mmu.stage2_tlb.readAccesses            0                       # DTB read accesses
system.cpu.itb.stage2_mmu.stage2_tlb.writeAccesses            0                       # DTB write accesses
system.cpu.itb.stage2_mmu.stage2_tlb.instAccesses            0                       # ITB inst accesses
system.cpu.itb.stage2_mmu.stage2_tlb.hits            0                       # Total TLB (inst and data) hits
system.cpu.itb.stage2_mmu.stage2_tlb.misses            0                       # Total TLB (inst and data) misses
system.cpu.itb.stage2_mmu.stage2_tlb.accesses            0                       # Total TLB (inst and data) accesses
system.cpu.itb.stage2_mmu.stage2_tlb.walker.walks            0                       # Table walker walks requested
system.cpu.itb.stage2_mmu.stage2_tlb.walker.requestOrigin_Requested::Data            0                       # Table walker requests started/completed, data/inst
system.cpu.itb.stage2_mmu.stage2_tlb.walker.requestOrigin_Requested::Inst            0                       # Table walker requests started/completed, data/inst
system.cpu.itb.stage2_mmu.stage2_tlb.walker.requestOrigin_Requested::total            0                       # Table walker requests started/completed, data/inst
system.cpu.itb.stage2_mmu.stage2_tlb.walker.requestOrigin_Completed::Data            0                       # Table walker requests started/completed, data/inst
system.cpu.itb.stage2_mmu.stage2_tlb.walker.requestOrigin_Completed::Inst            0                       # Table walker requests started/completed, data/inst
system.cpu.itb.stage2_mmu.stage2_tlb.walker.requestOrigin_Completed::total            0                       # Table walker requests started/completed, data/inst
system.cpu.itb.stage2_mmu.stage2_tlb.walker.requestOrigin::total            0                       # Table walker requests started/completed, data/inst
system.cpu.itb.stage2_mmu.stage2_tlb.walker.power_state.pwrStateResidencyTicks::UNDEFINED 128847999500                       # Cumulative time (in ticks) in various power states
system.cpu.itb.walker.walks                         0                       # Table walker walks requested
system.cpu.itb.walker.requestOrigin_Requested::Data            0                       # Table walker requests started/completed, data/inst
system.cpu.itb.walker.requestOrigin_Requested::Inst            0                       # Table walker requests started/completed, data/inst
system.cpu.itb.walker.requestOrigin_Requested::total            0                       # Table walker requests started/completed, data/inst
system.cpu.itb.walker.requestOrigin_Completed::Data            0                       # Table walker requests started/completed, data/inst
system.cpu.itb.walker.requestOrigin_Completed::Inst            0                       # Table walker requests started/completed, data/inst
system.cpu.itb.walker.requestOrigin_Completed::total            0                       # Table walker requests started/completed, data/inst
system.cpu.itb.walker.requestOrigin::total            0                       # Table walker requests started/completed, data/inst
system.cpu.itb.walker.power_state.pwrStateResidencyTicks::UNDEFINED 128847999500                       # Cumulative time (in ticks) in various power states
system.cpu.power_state.pwrStateResidencyTicks::ON 128847999500                       # Cumulative time (in ticks) in various power states
system.cpu.thread_0.numInsts                100000001                       # Number of Instructions committed
system.cpu.thread_0.numOps                  100003447                       # Number of Ops committed
system.cpu.thread_0.numMemRefs                      0                       # Number of Memory References
system.cpu_clk_domain.clock                       500                       # Clock period in ticks
system.cpu_voltage_domain.voltage                   1                       # Voltage in Volts
system.l2.demand_hits::.cpu.inst                   16                       # number of demand (read+write) hits
system.l2.demand_hits::.cpu.data                   16                       # number of demand (read+write) hits
system.l2.demand_hits::total                       32                       # number of demand (read+write) hits
system.l2.overall_hits::.cpu.inst                  16                       # number of overall hits
system.l2.overall_hits::.cpu.data                  16                       # number of overall hits
system.l2.overall_hits::total                      32                       # number of overall hits
system.l2.demand_misses::.cpu.inst                333                       # number of demand (read+write) misses
system.l2.demand_misses::.cpu.data             743828                       # number of demand (read+write) misses
system.l2.demand_misses::total                 744161                       # number of demand (read+write) misses
system.l2.overall_misses::.cpu.inst               333                       # number of overall misses
system.l2.overall_misses::.cpu.data            743828                       # number of overall misses
system.l2.overall_misses::total                744161                       # number of overall misses
system.l2.demand_miss_latency::.cpu.inst     27591000                       # number of demand (read+write) miss cycles
system.l2.demand_miss_latency::.cpu.data  69675099000                       # number of demand (read+write) miss cycles
system.l2.demand_miss_latency::total      69702690000                       # number of demand (read+write) miss cycles
system.l2.overall_miss_latency::.cpu.inst     27591000                       # number of overall miss cycles
system.l2.overall_miss_latency::.cpu.data  69675099000                       # number of overall miss cycles
system.l2.overall_miss_latency::total     69702690000                       # number of overall miss cycles
system.l2.demand_accesses::.cpu.inst              349                       # number of demand (read+write) accesses
system.l2.demand_accesses::.cpu.data           743844                       # number of demand (read+write) accesses
system.l2.demand_accesses::total               744193                       # number of demand (read+write) accesses
system.l2.overall_accesses::.cpu.inst             349                       # number of overall (read+write) accesses
system.l2.overall_accesses::.cpu.data          743844                       # number of overall (read+write) accesses
system.l2.overall_accesses::total              744193                       # number of overall (read+write) accesses
system.l2.demand_miss_rate::.cpu.inst        0.954155                       # miss rate for demand accesses
system.l2.demand_miss_rate::.cpu.data        0.999978                       # miss rate for demand accesses
system.l2.demand_miss_rate::total            0.999957                       # miss rate for demand accesses
system.l2.overall_miss_rate::.cpu.inst       0.954155                       # miss rate for overall accesses
system.l2.overall_miss_rate::.cpu.data       0.999978                       # miss rate for overall accesses
system.l2.overall_miss_rate::total           0.999957                       # miss rate for overall accesses
system.l2.demand_avg_miss_latency::.cpu.inst 82855.855856                       # average overall miss latency
system.l2.demand_avg_miss_latency::.cpu.data 93670.981732                       # average overall miss latency
system.l2.demand_avg_miss_latency::total 93666.142139                       # average overall miss latency
system.l2.overall_avg_miss_latency::.cpu.inst 82855.855856                       # average overall miss latency
system.l2.overall_avg_miss_latency::.cpu.data 93670.981732                       # average overall miss latency
system.l2.overall_avg_miss_latency::total 93666.142139                       # average overall miss latency
system.l2.blocked_cycles::no_mshrs                  0                       # number of cycles access was blocked
system.l2.blocked_cycles::no_targets                0                       # number of cycles access was blocked
system.l2.blocked::no_mshrs                         0                       # number of cycles access was blocked
system.l2.blocked::no_targets                       0                       # number of cycles access was blocked
system.l2.avg_blocked_cycles::no_mshrs            nan                       # average number of cycles each access was blocked
system.l2.avg_blocked_cycles::no_targets          nan                       # average number of cycles each access was blocked
system.l2.writebacks::.writebacks              710996                       # number of writebacks
system.l2.writebacks::total                    710996                       # number of writebacks
system.l2.demand_mshr_hits::.cpu.inst               1                       # number of demand (read+write) MSHR hits
system.l2.demand_mshr_hits::.cpu.data               2                       # number of demand (read+write) MSHR hits
system.l2.demand_mshr_hits::total                   3                       # number of demand (read+write) MSHR hits
system.l2.overall_mshr_hits::.cpu.inst              1                       # number of overall MSHR hits
system.l2.overall_mshr_hits::.cpu.data              2                       # number of overall MSHR hits
system.l2.overall_mshr_hits::total                  3                       # number of overall MSHR hits
system.l2.demand_mshr_misses::.cpu.inst           332                       # number of demand (read+write) MSHR misses
system.l2.demand_mshr_misses::.cpu.data        743826                       # number of demand (read+write) MSHR misses
system.l2.demand_mshr_misses::total            744158                       # number of demand (read+write) MSHR misses
system.l2.overall_mshr_misses::.cpu.inst          332                       # number of overall MSHR misses
system.l2.overall_mshr_misses::.cpu.data       743826                       # number of overall MSHR misses
system.l2.overall_mshr_misses::total           744158                       # number of overall MSHR misses
system.l2.demand_mshr_miss_latency::.cpu.inst     24197500                       # number of demand (read+write) MSHR miss cycles
system.l2.demand_mshr_miss_latency::.cpu.data  62236680000                       # number of demand (read+write) MSHR miss cycles
system.l2.demand_mshr_miss_latency::total  62260877500                       # number of demand (read+write) MSHR miss cycles
system.l2.overall_mshr_miss_latency::.cpu.inst     24197500                       # number of overall MSHR miss cycles
system.l2.overall_mshr_miss_latency::.cpu.data  62236680000                       # number of overall MSHR miss cycles
system.l2.overall_mshr_miss_latency::total  62260877500                       # number of overall MSHR miss cycles
system.l2.demand_mshr_miss_rate::.cpu.inst     0.951289                       # mshr miss rate for demand accesses
system.l2.demand_mshr_miss_rate::.cpu.data     0.999976                       # mshr miss rate for demand accesses
system.l2.demand_mshr_miss_rate::total       0.999953                       # mshr miss rate for demand accesses
system.l2.overall_mshr_miss_rate::.cpu.inst     0.951289                       # mshr miss rate for overall accesses
system.l2.overall_mshr_miss_rate::.cpu.data     0.999976                       # mshr miss rate for overall accesses
system.l2.overall_mshr_miss_rate::total      0.999953                       # mshr miss rate for overall accesses
system.l2.demand_avg_mshr_miss_latency::.cpu.inst 72884.036145                       # average overall mshr miss latency
system.l2.demand_avg_mshr_miss_latency::.cpu.data 83671.019835                       # average overall mshr miss latency
system.l2.demand_avg_mshr_miss_latency::total 83666.207311                       # average overall mshr miss latency
system.l2.overall_avg_mshr_miss_latency::.cpu.inst 72884.036145                       # average overall mshr miss latency
system.l2.overall_avg_mshr_miss_latency::.cpu.data 83671.019835                       # average overall mshr miss latency
system.l2.overall_avg_mshr_miss_latency::total 83666.207311                       # average overall mshr miss latency
system.l2.replacements                         711390                       # number of replacements
system.l2.WritebackDirty_hits::.writebacks       742743                       # number of WritebackDirty hits
system.l2.WritebackDirty_hits::total           742743                       # number of WritebackDirty hits
system.l2.WritebackDirty_accesses::.writebacks       742743                       # number of WritebackDirty accesses(hits+misses)
system.l2.WritebackDirty_accesses::total       742743                       # number of WritebackDirty accesses(hits+misses)
system.l2.WritebackClean_hits::.writebacks           16                       # number of WritebackClean hits
system.l2.WritebackClean_hits::total               16                       # number of WritebackClean hits
system.l2.WritebackClean_accesses::.writebacks           16                       # number of WritebackClean accesses(hits+misses)
system.l2.WritebackClean_accesses::total           16                       # number of WritebackClean accesses(hits+misses)
system.l2.ReadExReq_misses::.cpu.data          743753                       # number of ReadExReq misses
system.l2.ReadExReq_misses::total              743753                       # number of ReadExReq misses
system.l2.ReadExReq_miss_latency::.cpu.data  69668606500                       # number of ReadExReq miss cycles
system.l2.ReadExReq_miss_latency::total   69668606500                       # number of ReadExReq miss cycles
system.l2.ReadExReq_accesses::.cpu.data        743753                       # number of ReadExReq accesses(hits+misses)
system.l2.ReadExReq_accesses::total            743753                       # number of ReadExReq accesses(hits+misses)
system.l2.ReadExReq_miss_rate::.cpu.data            1                       # miss rate for ReadExReq accesses
system.l2.ReadExReq_miss_rate::total                1                       # miss rate for ReadExReq accesses
system.l2.ReadExReq_avg_miss_latency::.cpu.data 93671.698131                       # average ReadExReq miss latency
system.l2.ReadExReq_avg_miss_latency::total 93671.698131                       # average ReadExReq miss latency
system.l2.ReadExReq_mshr_misses::.cpu.data       743753                       # number of ReadExReq MSHR misses
system.l2.ReadExReq_mshr_misses::total         743753                       # number of ReadExReq MSHR misses
system.l2.ReadExReq_mshr_miss_latency::.cpu.data  62231076500                       # number of ReadExReq MSHR miss cycles
system.l2.ReadExReq_mshr_miss_latency::total  62231076500                       # number of ReadExReq MSHR miss cycles
system.l2.ReadExReq_mshr_miss_rate::.cpu.data            1                       # mshr miss rate for ReadExReq accesses
system.l2.ReadExReq_mshr_miss_rate::total            1                       # mshr miss rate for ReadExReq accesses
system.l2.ReadExReq_avg_mshr_miss_latency::.cpu.data 83671.698131                       # average ReadExReq mshr miss latency
system.l2.ReadExReq_avg_mshr_miss_latency::total 83671.698131                       # average ReadExReq mshr miss latency
system.l2.ReadCleanReq_hits::.cpu.inst             16                       # number of ReadCleanReq hits
system.l2.ReadCleanReq_hits::total                 16                       # number of ReadCleanReq hits
system.l2.ReadCleanReq_misses::.cpu.inst          333                       # number of ReadCleanReq misses
system.l2.ReadCleanReq_misses::total              333                       # number of ReadCleanReq misses
system.l2.ReadCleanReq_miss_latency::.cpu.inst     27591000                       # number of ReadCleanReq miss cycles
system.l2.ReadCleanReq_miss_latency::total     27591000                       # number of ReadCleanReq miss cycles
system.l2.ReadCleanReq_accesses::.cpu.inst          349                       # number of ReadCleanReq accesses(hits+misses)
system.l2.ReadCleanReq_accesses::total            349                       # number of ReadCleanReq accesses(hits+misses)
system.l2.ReadCleanReq_miss_rate::.cpu.inst     0.954155                       # miss rate for ReadCleanReq accesses
system.l2.ReadCleanReq_miss_rate::total      0.954155                       # miss rate for ReadCleanReq accesses
system.l2.ReadCleanReq_avg_miss_latency::.cpu.inst 82855.855856                       # average ReadCleanReq miss latency
system.l2.ReadCleanReq_avg_miss_latency::total 82855.855856                       # average ReadCleanReq miss latency
system.l2.ReadCleanReq_mshr_hits::.cpu.inst            1                       # number of ReadCleanReq MSHR hits
system.l2.ReadCleanReq_mshr_hits::total             1                       # number of ReadCleanReq MSHR hits
system.l2.ReadCleanReq_mshr_misses::.cpu.inst          332                       # number of ReadCleanReq MSHR misses
system.l2.ReadCleanReq_mshr_misses::total          332                       # number of ReadCleanReq MSHR misses
system.l2.ReadCleanReq_mshr_miss_latency::.cpu.inst     24197500                       # number of ReadCleanReq MSHR miss cycles
system.l2.ReadCleanReq_mshr_miss_latency::total     24197500                       # number of ReadCleanReq MSHR miss cycles
system.l2.ReadCleanReq_mshr_miss_rate::.cpu.inst     0.951289                       # mshr miss rate for ReadCleanReq accesses
system.l2.ReadCleanReq_mshr_miss_rate::total     0.951289                       # mshr miss rate for ReadCleanReq accesses
system.l2.ReadCleanReq_avg_mshr_miss_latency::.cpu.inst 72884.036145                       # average ReadCleanReq mshr miss latency
system.l2.ReadCleanReq_avg_mshr_miss_latency::total 72884.036145                       # average ReadCleanReq mshr miss latency
system.l2.ReadSharedReq_hits::.cpu.data            16                       # number of ReadSharedReq hits
system.l2.ReadSharedReq_hits::total                16                       # number of ReadSharedReq hits
system.l2.ReadSharedReq_misses::.cpu.data           75                       # number of ReadSharedReq misses
system.l2.ReadSharedReq_misses::total              75                       # number of ReadSharedReq misses
system.l2.ReadSharedReq_miss_latency::.cpu.data      6492500                       # number of ReadSharedReq miss cycles
system.l2.ReadSharedReq_miss_latency::total      6492500                       # number of ReadSharedReq miss cycles
system.l2.ReadSharedReq_accesses::.cpu.data           91                       # number of ReadSharedReq accesses(hits+misses)
system.l2.ReadSharedReq_accesses::total            91                       # number of ReadSharedReq accesses(hits+misses)
system.l2.ReadSharedReq_miss_rate::.cpu.data     0.824176                       # miss rate for ReadSharedReq accesses
system.l2.ReadSharedReq_miss_rate::total     0.824176                       # miss rate for ReadSharedReq accesses
system.l2.ReadSharedReq_avg_miss_latency::.cpu.data 86566.666667                       # average ReadSharedReq miss latency
system.l2.ReadSharedReq_avg_miss_latency::total 86566.666667                       # average ReadSharedReq miss latency
system.l2.ReadSharedReq_mshr_hits::.cpu.data            2                       # number of ReadSharedReq MSHR hits
system.l2.ReadSharedReq_mshr_hits::total            2                       # number of ReadSharedReq MSHR hits
system.l2.ReadSharedReq_mshr_misses::.cpu.data           73                       # number of ReadSharedReq MSHR misses
system.l2.ReadSharedReq_mshr_misses::total           73                       # number of ReadSharedReq MSHR misses
system.l2.ReadSharedReq_mshr_miss_latency::.cpu.data      5603500                       # number of ReadSharedReq MSHR miss cycles
system.l2.ReadSharedReq_mshr_miss_latency::total      5603500                       # number of ReadSharedReq MSHR miss cycles
system.l2.ReadSharedReq_mshr_miss_rate::.cpu.data     0.802198                       # mshr miss rate for ReadSharedReq accesses
system.l2.ReadSharedReq_mshr_miss_rate::total     0.802198                       # mshr miss rate for ReadSharedReq accesses
system.l2.ReadSharedReq_avg_mshr_miss_latency::.cpu.data 76760.273973                       # average ReadSharedReq mshr miss latency
system.l2.ReadSharedReq_avg_mshr_miss_latency::total 76760.273973                       # average ReadSharedReq mshr miss latency
system.l2.power_state.pwrStateResidencyTicks::UNDEFINED 128847999500                       # Cumulative time (in ticks) in various power states
system.l2.tags.tagsinuse                 32106.702002                       # Cycle average of tags in use
system.l2.tags.total_refs                     1486999                       # Total number of references to valid blocks.
system.l2.tags.sampled_refs                    744158                       # Sample count of references to valid blocks.
system.l2.tags.avg_refs                      1.998230                       # Average number of references to valid blocks.
system.l2.tags.warmup_cycle                     82000                       # Cycle when the warmup percentage was hit.
system.l2.tags.occ_blocks::.cpu.inst        12.584507                       # Average occupied blocks per requestor
system.l2.tags.occ_blocks::.cpu.data     32094.117496                       # Average occupied blocks per requestor
system.l2.tags.occ_percent::.cpu.inst        0.000384                       # Average percentage of cache occupancy
system.l2.tags.occ_percent::.cpu.data        0.979435                       # Average percentage of cache occupancy
system.l2.tags.occ_percent::total            0.979819                       # Average percentage of cache occupancy
system.l2.tags.occ_task_id_blocks::1024         32768                       # Occupied blocks per task id
system.l2.tags.age_task_id_blocks_1024::0           56                       # Occupied blocks per task id
system.l2.tags.age_task_id_blocks_1024::1          520                       # Occupied blocks per task id
system.l2.tags.age_task_id_blocks_1024::2         5175                       # Occupied blocks per task id
system.l2.tags.age_task_id_blocks_1024::3        27017                       # Occupied blocks per task id
system.l2.tags.occ_task_id_percent::1024            1                       # Percentage of cache occupancy per task id
system.l2.tags.tag_accesses                   6692166                       # Number of tag accesses
system.l2.tags.data_accesses                  6692166                       # Number of data accesses
system.l2.tags.power_state.pwrStateResidencyTicks::UNDEFINED 128847999500                       # Cumulative time (in ticks) in various power states
system.mem_ctrls.avgPriority_.writebacks::samples   1421992.00                       # Average QoS priority value for accepted requests
system.mem_ctrls.avgPriority_.cpu.inst::samples       664.00                       # Average QoS priority value for accepted requests
system.mem_ctrls.avgPriority_.cpu.data::samples   1487652.00                       # Average QoS priority value for accepted requests
system.mem_ctrls.priorityMinLatency      0.000000018750                       # per QoS priority minimum request to response latency (s)
system.mem_ctrls.priorityMaxLatency      0.000053035500                       # per QoS priority maximum request to response latency (s)
system.mem_ctrls.numReadWriteTurnArounds        78994                       # Number of turnarounds from READ to WRITE
system.mem_ctrls.numWriteReadTurnArounds        78994                       # Number of turnarounds from WRITE to READ
system.mem_ctrls.numStayReadState             2913715                       # Number of times bus staying in READ state
system.mem_ctrls.numStayWriteState            1344519                       # Number of times bus staying in WRITE state
system.mem_ctrls.readReqs                      744158                       # Number of read requests accepted
system.mem_ctrls.writeReqs                     710996                       # Number of write requests accepted
system.mem_ctrls.readBursts                   1488316                       # Number of controller read bursts, including those serviced by the write queue
system.mem_ctrls.writeBursts                  1421992                       # Number of controller write bursts, including those merged in the write queue
system.mem_ctrls.servicedByWrQ                      0                       # Number of controller read bursts serviced by the write queue
system.mem_ctrls.mergedWrBursts                     0                       # Number of controller write bursts merged with an existing one
system.mem_ctrls.neitherReadNorWriteReqs            0                       # Number of requests that are neither read nor write
system.mem_ctrls.avgRdQLen                       2.00                       # Average read queue length when enqueuing
system.mem_ctrls.avgWrQLen                      24.61                       # Average write queue length when enqueuing
system.mem_ctrls.numRdRetry                         0                       # Number of times read queue was full causing retry
system.mem_ctrls.numWrRetry                         0                       # Number of times write queue was full causing retry
system.mem_ctrls.readPktSize::0                     0                       # Read request sizes (log2)
system.mem_ctrls.readPktSize::1                     0                       # Read request sizes (log2)
system.mem_ctrls.readPktSize::2                     0                       # Read request sizes (log2)
system.mem_ctrls.readPktSize::3                     0                       # Read request sizes (log2)
system.mem_ctrls.readPktSize::4                     0                       # Read request sizes (log2)
system.mem_ctrls.readPktSize::5                     0                       # Read request sizes (log2)
system.mem_ctrls.readPktSize::6               1488316                       # Read request sizes (log2)
system.mem_ctrls.readPktSize::7                     0                       # Read request sizes (log2)
system.mem_ctrls.writePktSize::0                    0                       # Write request sizes (log2)
system.mem_ctrls.writePktSize::1                    0                       # Write request sizes (log2)
[...]
system.mem_ctrls.dram.bw_write::.writebacks    706316655                       # Write bandwidth from this memory (bytes/s)
system.mem_ctrls.dram.bw_write::total       706316655                       # Write bandwidth from this memory (bytes/s)
system.mem_ctrls.dram.bw_total::.writebacks    706316655                       # Total bandwidth to/from this memory (bytes/s)
system.mem_ctrls.dram.bw_total::.cpu.inst       329815                       # Total bandwidth to/from this memory (bytes/s)
system.mem_ctrls.dram.bw_total::.cpu.data    738930588                       # Total bandwidth to/from this memory (bytes/s)
system.mem_ctrls.dram.bw_total::total      1445577058                       # Total bandwidth to/from this memory (bytes/s)
system.mem_ctrls.dram.readBursts              1488316                       # Number of DRAM read bursts
system.mem_ctrls.dram.writeBursts             1421973                       # Number of DRAM write bursts
system.mem_ctrls.dram.perBankRdBursts::0        93012                       # Per bank write bursts
system.mem_ctrls.dram.perBankRdBursts::1        92990                       # Per bank write bursts
system.mem_ctrls.dram.perBankRdBursts::2        93088                       # Per bank write bursts
system.mem_ctrls.dram.perBankRdBursts::3        93036                       # Per bank write bursts
system.mem_ctrls.dram.perBankRdBursts::4        93112                       # Per bank write bursts
system.mem_ctrls.dram.perBankRdBursts::5        93068                       # Per bank write bursts
system.mem_ctrls.dram.perBankRdBursts::6        93096                       # Per bank write bursts
system.mem_ctrls.dram.perBankRdBursts::7        93074                       # Per bank write bursts
system.mem_ctrls.dram.perBankRdBursts::8        93018                       # Per bank write bursts
system.mem_ctrls.dram.perBankRdBursts::9        92962                       # Per bank write bursts
system.mem_ctrls.dram.perBankRdBursts::10        92978                       # Per bank write bursts
system.mem_ctrls.dram.perBankRdBursts::11        92966                       # Per bank write bursts
system.mem_ctrls.dram.perBankRdBursts::12        93034                       # Per bank write bursts
system.mem_ctrls.dram.perBankRdBursts::13        92932                       # Per bank write bursts
system.mem_ctrls.dram.perBankRdBursts::14        92948                       # Per bank write bursts
system.mem_ctrls.dram.perBankRdBursts::15        93002                       # Per bank write bursts
system.mem_ctrls.dram.perBankWrBursts::0        88854                       # Per bank write bursts
system.mem_ctrls.dram.perBankWrBursts::1        88850                       # Per bank write bursts
system.mem_ctrls.dram.perBankWrBursts::2        88838                       # Per bank write bursts
system.mem_ctrls.dram.perBankWrBursts::3        88898                       # Per bank write bursts
system.mem_ctrls.dram.perBankWrBursts::4        88960                       # Per bank write bursts
system.mem_ctrls.dram.perBankWrBursts::5        88960                       # Per bank write bursts
system.mem_ctrls.dram.perBankWrBursts::6        88960                       # Per bank write bursts
system.mem_ctrls.dram.perBankWrBursts::7        88943                       # Per bank write bursts
system.mem_ctrls.dram.perBankWrBursts::8        88832                       # Per bank write bursts
system.mem_ctrls.dram.perBankWrBursts::9        88832                       # Per bank write bursts
system.mem_ctrls.dram.perBankWrBursts::10        88832                       # Per bank write bursts
system.mem_ctrls.dram.perBankWrBursts::11        88832                       # Per bank write bursts
system.mem_ctrls.dram.perBankWrBursts::12        88832                       # Per bank write bursts
system.mem_ctrls.dram.perBankWrBursts::13        88832                       # Per bank write bursts
system.mem_ctrls.dram.perBankWrBursts::14        88836                       # Per bank write bursts
system.mem_ctrls.dram.perBankWrBursts::15        88882                       # Per bank write bursts
system.mem_ctrls.dram.totQLat             31572736500                       # Total ticks spent queuing
system.mem_ctrls.dram.totBusLat            7441580000                       # Total ticks spent in databus transfers
system.mem_ctrls.dram.totMemAccLat        59478661500                       # Total ticks spent from burst creation until serviced by the DRAM
system.mem_ctrls.dram.avgQLat                21213.73                       # Average queueing delay per DRAM burst
system.mem_ctrls.dram.avgBusLat               5000.00                       # Average bus latency per DRAM burst
system.mem_ctrls.dram.avgMemAccLat           39963.73                       # Average memory access latency per DRAM burst
system.mem_ctrls.dram.readRowHits             1323397                       # Number of row buffer hits during reads
system.mem_ctrls.dram.writeRowHits            1263855                       # Number of row buffer hits during writes
system.mem_ctrls.dram.readRowHitRate            88.92                       # Row buffer hit rate for reads
system.mem_ctrls.dram.writeRowHitRate           88.88                       # Row buffer hit rate for writes
system.mem_ctrls.dram.bytesPerActivate::samples       323035                       # Bytes accessed per row activation
system.mem_ctrls.dram.bytesPerActivate::mean   576.588419                       # Bytes accessed per row activation
system.mem_ctrls.dram.bytesPerActivate::gmean   383.975397                       # Bytes accessed per row activation
system.mem_ctrls.dram.bytesPerActivate::stdev   419.590292                       # Bytes accessed per row activation
system.mem_ctrls.dram.bytesPerActivate::0-127         5004      1.55%      1.55% # Bytes accessed per row activation
system.mem_ctrls.dram.bytesPerActivate::128-255       128849     39.89%     41.44% # Bytes accessed per row activation
system.mem_ctrls.dram.bytesPerActivate::256-383        11124      3.44%     44.88% # Bytes accessed per row activation
system.mem_ctrls.dram.bytesPerActivate::384-511         9470      2.93%     47.81% # Bytes accessed per row activation
system.mem_ctrls.dram.bytesPerActivate::512-639         8644      2.68%     50.49% # Bytes accessed per row activation
system.mem_ctrls.dram.bytesPerActivate::640-767         8122      2.51%     53.00% # Bytes accessed per row activation
system.mem_ctrls.dram.bytesPerActivate::768-895         9039      2.80%     55.80% # Bytes accessed per row activation
system.mem_ctrls.dram.bytesPerActivate::896-1023         7874      2.44%     58.24% # Bytes accessed per row activation
system.mem_ctrls.dram.bytesPerActivate::1024-1151       134909     41.76%    100.00% # Bytes accessed per row activation
system.mem_ctrls.dram.bytesPerActivate::total       323035                       # Bytes accessed per row activation
system.mem_ctrls.dram.bytesRead              95252224                       # Total number of bytes read from DRAM
system.mem_ctrls.dram.bytesWritten           91006272                       # Total number of bytes written to DRAM
system.mem_ctrls.dram.avgRdBW              739.260403                       # Average DRAM read bandwidth in MiBytes/s
system.mem_ctrls.dram.avgWrBW              706.307217                       # Average DRAM write bandwidth in MiBytes/s
system.mem_ctrls.dram.peakBW                 12800.00                       # Theoretical peak bandwidth in MiByte/s
system.mem_ctrls.dram.busUtil                   11.29                       # Data bus utilization in percentage
system.mem_ctrls.dram.busUtilRead                5.78                       # Data bus utilization in percentage for reads
system.mem_ctrls.dram.busUtilWrite               5.52                       # Data bus utilization in percentage for writes
system.mem_ctrls.dram.pageHitRate               88.90                       # Row buffer hit rate, read and write combined
system.mem_ctrls.dram.power_state.pwrStateResidencyTicks::UNDEFINED 128847999500                       # Cumulative time (in ticks) in various power states
system.mem_ctrls.dram.rank0.actEnergy      1153738320                       # Energy for activate commands per rank (pJ)
system.mem_ctrls.dram.rank0.preEnergy       613222665                       # Energy for precharge commands per rank (pJ)
system.mem_ctrls.dram.rank0.readEnergy     5315558640                       # Energy for read commands per rank (pJ)
system.mem_ctrls.dram.rank0.writeEnergy    3712792860                       # Energy for write commands per rank (pJ)
system.mem_ctrls.dram.rank0.refreshEnergy 10171062720.000002                       # Energy for refresh commands per rank (pJ)
system.mem_ctrls.dram.rank0.actBackEnergy  30200089410                       # Energy for active background per rank (pJ)
system.mem_ctrls.dram.rank0.preBackEnergy  24045977760                       # Energy for precharge background per rank (pJ)
system.mem_ctrls.dram.rank0.actPowerDownEnergy            0                       # Energy for active power-down per rank (pJ)
system.mem_ctrls.dram.rank0.prePowerDownEnergy            0                       # Energy for precharge power-down per rank (pJ)
system.mem_ctrls.dram.rank0.selfRefreshEnergy            0                       # Energy for self refresh per rank (pJ)
system.mem_ctrls.dram.rank0.totalEnergy   75212442375                       # Total energy per rank (pJ)
system.mem_ctrls.dram.rank0.averagePower   583.729997                       # Core power per rank (mW)
system.mem_ctrls.dram.rank0.totalIdleTime            0                       # Total Idle time Per DRAM Rank
system.mem_ctrls.dram.rank0.pwrStateTime::IDLE  61170571000                       # Time in different power states
system.mem_ctrls.dram.rank0.pwrStateTime::REF   4302480000                       # Time in different power states
system.mem_ctrls.dram.rank0.pwrStateTime::SREF            0                       # Time in different power states
system.mem_ctrls.dram.rank0.pwrStateTime::PRE_PDN            0                       # Time in different power states
system.mem_ctrls.dram.rank0.pwrStateTime::ACT  63374948500                       # Time in different power states
system.mem_ctrls.dram.rank0.pwrStateTime::ACT_PDN            0                       # Time in different power states
system.mem_ctrls.dram.rank1.actEnergy      1152745860                       # Energy for activate commands per rank (pJ)
system.mem_ctrls.dram.rank1.preEnergy       612695160                       # Energy for precharge commands per rank (pJ)
system.mem_ctrls.dram.rank1.readEnergy     5311017600                       # Energy for read commands per rank (pJ)
system.mem_ctrls.dram.rank1.writeEnergy    3709906200                       # Energy for write commands per rank (pJ)
system.mem_ctrls.dram.rank1.refreshEnergy 10171062720.000002                       # Energy for refresh commands per rank (pJ)
system.mem_ctrls.dram.rank1.actBackEnergy  30197478810                       # Energy for active background per rank (pJ)
system.mem_ctrls.dram.rank1.preBackEnergy  24048176160                       # Energy for precharge background per rank (pJ)
system.mem_ctrls.dram.rank1.actPowerDownEnergy            0                       # Energy for active power-down per rank (pJ)
system.mem_ctrls.dram.rank1.prePowerDownEnergy            0                       # Energy for precharge power-down per rank (pJ)
system.mem_ctrls.dram.rank1.selfRefreshEnergy            0                       # Energy for self refresh per rank (pJ)
system.mem_ctrls.dram.rank1.totalEnergy   75203082510                       # Total energy per rank (pJ)
system.mem_ctrls.dram.rank1.averagePower   583.657354                       # Core power per rank (mW)
system.mem_ctrls.dram.rank1.totalIdleTime            0                       # Total Idle time Per DRAM Rank
system.mem_ctrls.dram.rank1.pwrStateTime::IDLE  61177055250                       # Time in different power states
system.mem_ctrls.dram.rank1.pwrStateTime::REF   4302480000                       # Time in different power states
system.mem_ctrls.dram.rank1.pwrStateTime::SREF            0                       # Time in different power states
system.mem_ctrls.dram.rank1.pwrStateTime::PRE_PDN            0                       # Time in different power states
system.mem_ctrls.dram.rank1.pwrStateTime::ACT  63368464250                       # Time in different power states
system.mem_ctrls.dram.rank1.pwrStateTime::ACT_PDN            0                       # Time in different power states
system.mem_ctrls.power_state.pwrStateResidencyTicks::UNDEFINED 128847999500                       # Cumulative time (in ticks) in various power states
system.membus.trans_dist::ReadResp                405                       # Transaction distribution
system.membus.trans_dist::WritebackDirty       710996                       # Transaction distribution
system.membus.trans_dist::CleanEvict               62                       # Transaction distribution
system.membus.trans_dist::ReadExReq            743753                       # Transaction distribution
system.membus.trans_dist::ReadExResp           743753                       # Transaction distribution
system.membus.trans_dist::ReadSharedReq           405                       # Transaction distribution
system.membus.pkt_count_system.l2.mem_side_port::system.mem_ctrls.port      2199374                       # Packet count per connected requestor and responder (bytes)
system.membus.pkt_count::total                2199374                       # Packet count per connected requestor and responder (bytes)
system.membus.pkt_size_system.l2.mem_side_port::system.mem_ctrls.port    186259712                       # Cumulative packet size per connected requestor and responder (bytes)
system.membus.pkt_size::total               186259712                       # Cumulative packet size per connected requestor and responder (bytes)
system.membus.snoops                                0                       # Total snoops (count)
system.membus.snoopTraffic                          0                       # Total snoop traffic (bytes)
system.membus.snoop_fanout::samples            744158                       # Request fanout histogram
system.membus.snoop_fanout::mean                    0                       # Request fanout histogram
system.membus.snoop_fanout::stdev                   0                       # Request fanout histogram
system.membus.snoop_fanout::underflows              0      0.00%      0.00% # Request fanout histogram
system.membus.snoop_fanout::0                  744158    100.00%    100.00% # Request fanout histogram
system.membus.snoop_fanout::1                       0      0.00%    100.00% # Request fanout histogram
system.membus.snoop_fanout::overflows               0      0.00%    100.00% # Request fanout histogram
system.membus.snoop_fanout::min_value               0                       # Request fanout histogram
system.membus.snoop_fanout::max_value               0                       # Request fanout histogram
system.membus.snoop_fanout::total              744158                       # Request fanout histogram
system.membus.power_state.pwrStateResidencyTicks::UNDEFINED 128847999500                       # Cumulative time (in ticks) in various power states
system.membus.reqLayer0.occupancy          7366367500                       # Layer occupancy (ticks)
system.membus.reqLayer0.utilization               5.7                       # Layer utilization (%)
system.membus.respLayer1.occupancy         6922613000                       # Layer occupancy (ticks)
system.membus.respLayer1.utilization              5.4                       # Layer utilization (%)
system.tol2bus.trans_dist::ReadResp               440                       # Transaction distribution
system.tol2bus.trans_dist::WritebackDirty      1453739                       # Transaction distribution
system.tol2bus.trans_dist::WritebackClean           19                       # Transaction distribution
system.tol2bus.trans_dist::CleanEvict             471                       # Transaction distribution
system.tol2bus.trans_dist::ReadExReq           743753                       # Transaction distribution
system.tol2bus.trans_dist::ReadExResp          743753                       # Transaction distribution
system.tol2bus.trans_dist::ReadCleanReq           349                       # Transaction distribution
system.tol2bus.trans_dist::ReadSharedReq           91                       # Transaction distribution
system.tol2bus.pkt_count_system.cpu.icache.mem_side_port::system.l2.cpu_side_port          717                       # Packet count per connected requestor and responder (bytes)
system.tol2bus.pkt_count_system.cpu.dcache.mem_side_port::system.l2.cpu_side_port      2230508                       # Packet count per connected requestor and responder (bytes)
system.tol2bus.pkt_count::total               2231225                       # Packet count per connected requestor and responder (bytes)
system.tol2bus.pkt_size_system.cpu.icache.mem_side_port::system.l2.cpu_side_port        47104                       # Cumulative packet size per connected requestor and responder (bytes)
system.tol2bus.pkt_size_system.cpu.dcache.mem_side_port::system.l2.cpu_side_port    190283136                       # Cumulative packet size per connected requestor and responder (bytes)
system.tol2bus.pkt_size::total              190330240                       # Cumulative packet size per connected requestor and responder (bytes)
system.tol2bus.snoops                          711390                       # Total snoops (count)
system.tol2bus.snoopTraffic                  91007488                       # Total snoop traffic (bytes)
system.tol2bus.snoop_fanout::samples          1455583                       # Request fanout histogram
system.tol2bus.snoop_fanout::mean            0.000250                       # Request fanout histogram
system.tol2bus.snoop_fanout::stdev           0.015855                       # Request fanout histogram
system.tol2bus.snoop_fanout::underflows             0      0.00%      0.00% # Request fanout histogram
system.tol2bus.snoop_fanout::0                1455220     99.98%     99.98% # Request fanout histogram
system.tol2bus.snoop_fanout::1                    362      0.02%    100.00% # Request fanout histogram
system.tol2bus.snoop_fanout::2                      1      0.00%    100.00% # Request fanout histogram
system.tol2bus.snoop_fanout::overflows              0      0.00%    100.00% # Request fanout histogram
system.tol2bus.snoop_fanout::min_value              0                       # Request fanout histogram
system.tol2bus.snoop_fanout::max_value              2                       # Request fanout histogram
system.tol2bus.snoop_fanout::total            1455583                       # Request fanout histogram
system.tol2bus.power_state.pwrStateResidencyTicks::UNDEFINED 128847999500                       # Cumulative time (in ticks) in various power states
system.tol2bus.reqLayer0.occupancy         2229040000                       # Layer occupancy (ticks)
system.tol2bus.reqLayer0.utilization              1.7                       # Layer utilization (%)
system.tol2bus.respLayer0.occupancy            872999                       # Layer occupancy (ticks)
system.tol2bus.respLayer0.utilization             0.0                       # Layer utilization (%)
system.tol2bus.respLayer1.occupancy        1859610998                       # Layer occupancy (ticks)
system.tol2bus.respLayer1.utilization             1.4                       # Layer utilization (%)
system.voltage_domain.voltage                       1                       # Voltage in Volts

---------- End Simulation Statistics   ----------
