
---------- Begin Simulation Statistics ----------
final_tick                                54202460000                       # Number of ticks from beginning of simulation (restored from checkpoints and never reset)
host_inst_rate                                 336776                       # Simulator instruction rate (inst/s)
host_mem_usage                                 718864                       # Number of bytes of host memory used
host_op_rate                                   367555                       # Simulator op (including micro ops) rate (op/s)
host_seconds                                   296.93                       # Real time elapsed on the host
host_tick_rate                              182540806                       # Simulator tick rate (ticks/s)
sim_freq                                 1000000000000                       # Frequency of simulated ticks
sim_insts                                   100000001                       # Number of instructions simulated
sim_ops                                     109139393                       # Number of ops (including micro ops) simulated
sim_seconds                                  0.054202                       # Number of seconds simulated
sim_ticks                                 54202460000                       # Number of ticks simulated
system.cpu.committedInsts                   100000001                       # Number of instructions committed
system.cpu.committedOps                     109139393                       # Number of ops (including micro ops) committed
system.cpu.cpi                               1.084049                       # CPI: cycles per instruction
system.cpu.discardedOps                        431061                       # Number of ops (including micro ops) which were discarded before commit
system.cpu.idleCycles                         2197377                       # Total number of cycles that the object has spent stopped
system.cpu.ipc                               0.922467                       # IPC: instructions per cycle
system.cpu.numCycles                        108404920                       # number of cpu cycles simulated
system.cpu.numFetchSuspends                         0                       # Number of times Execute suspended instruction fetching
system.cpu.numWorkItemsCompleted                    0                       # number of work items this cpu completed
system.cpu.numWorkItemsStarted                      0                       # number of work items this cpu started
system.cpu.op_class_0::No_OpClass                   0      0.00%      0.00% # Class of committed instruction
system.cpu.op_class_0::IntAlu                72222733     66.17%     66.17% # Class of committed instruction
system.cpu.op_class_0::IntMult                 547028      0.50%     66.68% # Class of committed instruction
system.cpu.op_class_0::IntDiv                       0      0.00%     66.68% # Class of committed instruction
system.cpu.op_class_0::FloatAdd                     0      0.00%     66.68% # Class of committed instruction
system.cpu.op_class_0::FloatCmp                     0      0.00%     66.68% # Class of committed instruction
system.cpu.op_class_0::FloatCvt                     0      0.00%     66.68% # Class of committed instruction
system.cpu.op_class_0::FloatMult                    0      0.00%     66.68% # Class of committed instruction
system.cpu.op_class_0::FloatMultAcc                 0      0.00%     66.68% # Class of committed instruction
system.cpu.op_class_0::FloatDiv                     0      0.00%     66.68% # Class of committed instruction
system.cpu.op_class_0::FloatMisc                    0      0.00%     66.68% # Class of committed instruction
system.cpu.op_class_0::FloatSqrt                    0      0.00%     66.68% # Class of committed instruction
system.cpu.op_class_0::SimdAdd                 231656      0.21%     66.89% # Class of committed instruction
system.cpu.op_class_0::SimdAddAcc                   0      0.00%     66.89% # Class of committed instruction
system.cpu.op_class_0::SimdAlu                 148482      0.14%     67.02% # Class of committed instruction
system.cpu.op_class_0::SimdCmp                 115828      0.11%     67.13% # Class of committed instruction
system.cpu.op_class_0::SimdCvt                      0      0.00%     67.13% # Class of committed instruction
system.cpu.op_class_0::SimdMisc                 42808      0.04%     67.17% # Class of committed instruction
system.cpu.op_class_0::SimdMult                     0      0.00%     67.17% # Class of committed instruction
system.cpu.op_class_0::SimdMultAcc                  0      0.00%     67.17% # Class of committed instruction
system.cpu.op_class_0::SimdShift                    0      0.00%     67.17% # Class of committed instruction
system.cpu.op_class_0::SimdShiftAcc                 0      0.00%     67.17% # Class of committed instruction
system.cpu.op_class_0::SimdDiv                      0      0.00%     67.17% # Class of committed instruction
system.cpu.op_class_0::SimdSqrt                     0      0.00%     67.17% # Class of committed instruction
system.cpu.op_class_0::SimdFloatAdd                 0      0.00%     67.17% # Class of committed instruction
system.cpu.op_class_0::SimdFloatAlu                 0      0.00%     67.17% # Class of committed instruction
system.cpu.op_class_0::SimdFloatCmp                 0      0.00%     67.17% # Class of committed instruction
system.cpu.op_class_0::SimdFloatCvt                 0      0.00%     67.17% # Class of committed instruction
system.cpu.op_class_0::SimdFloatDiv                 0      0.00%     67.17% # Class of committed instruction
system.cpu.op_class_0::SimdFloatMisc           159857      0.15%     67.32% # Class of committed instruction
system.cpu.op_class_0::SimdFloatMult                0      0.00%     67.32% # Class of committed instruction
system.cpu.op_class_0::SimdFloatMultAcc             0      0.00%     67.32% # Class of committed instruction
system.cpu.op_class_0::SimdFloatSqrt                0      0.00%     67.32% # Class of committed instruction
system.cpu.op_class_0::SimdReduceAdd                0      0.00%     67.32% # Class of committed instruction
system.cpu.op_class_0::SimdReduceAlu                0      0.00%     67.32% # Class of committed instruction
system.cpu.op_class_0::SimdReduceCmp                0      0.00%     67.32% # Class of committed instruction
system.cpu.op_class_0::SimdFloatReduceAdd            0      0.00%     67.32% # Class of committed instruction
system.cpu.op_class_0::SimdFloatReduceCmp            0      0.00%     67.32% # Class of committed instruction
system.cpu.op_class_0::SimdAes                      0      0.00%     67.32% # Class of committed instruction
system.cpu.op_class_0::SimdAesMix                   0      0.00%     67.32% # Class of committed instruction
system.cpu.op_class_0::SimdSha1Hash                 0      0.00%     67.32% # Class of committed instruction
system.cpu.op_class_0::SimdSha1Hash2                0      0.00%     67.32% # Class of committed instruction
system.cpu.op_class_0::SimdSha256Hash               0      0.00%     67.32% # Class of committed instruction
system.cpu.op_class_0::SimdSha256Hash2              0      0.00%     67.32% # Class of committed instruction
system.cpu.op_class_0::SimdShaSigma2                0      0.00%     67.32% # Class of committed instruction
system.cpu.op_class_0::SimdShaSigma3                0      0.00%     67.32% # Class of committed instruction
system.cpu.op_class_0::SimdPredAlu                  0      0.00%     67.32% # Class of committed instruction
system.cpu.op_class_0::MemRead               20932683     19.18%     86.50% # Class of committed instruction
system.cpu.op_class_0::MemWrite              14738318     13.50%    100.00% # Class of committed instruction
system.cpu.op_class_0::FloatMemRead                 0      0.00%    100.00% # Class of committed instruction
system.cpu.op_class_0::FloatMemWrite                0      0.00%    100.00% # Class of committed instruction
system.cpu.op_class_0::IprAccess                    0      0.00%    100.00% # Class of committed instruction
system.cpu.op_class_0::InstPrefetch                 0      0.00%    100.00% # Class of committed instruction
system.cpu.op_class_0::total                109139393                       # Class of committed instruction
system.cpu.tickCycles                       106207543                       # Number of cycles that the object actually ticked
system.cpu.workload.numSyscalls                    85                       # Number of system calls
system.membus.snoop_filter.hit_multi_requests            0                       # Number of requests hitting in the snoop filter with multiple (>1) holders of the requested data.
system.membus.snoop_filter.hit_multi_snoops            0                       # Number of snoops hitting in the snoop filter with multiple (>1) holders of the requested data.
system.membus.snoop_filter.hit_single_requests            0                       # Number of requests hitting in the snoop filter with a single holder of the requested data.
system.membus.snoop_filter.hit_single_snoops            0                       # Number of snoops hitting in the snoop filter with a single holder of the requested data.
system.membus.snoop_filter.tot_requests         19439                       # Total number of requests made to the snoop filter.
system.membus.snoop_filter.tot_snoops               0                       # Total number of snoops made to the snoop filter.
system.tol2bus.snoop_filter.hit_multi_requests           22                       # Number of requests hitting in the snoop filter with multiple (>1) holders of the requested data.
system.tol2bus.snoop_filter.hit_multi_snoops            0                       # Number of snoops hitting in the snoop filter with multiple (>1) holders of the requested data.
system.tol2bus.snoop_filter.hit_single_requests        27820                       # Number of requests hitting in the snoop filter with a single holder of the requested data.
system.tol2bus.snoop_filter.hit_single_snoops            0                       # Number of snoops hitting in the snoop filter with a single holder of the requested data.
system.tol2bus.snoop_filter.tot_requests        57001                       # Total number of requests made to the snoop filter.
system.tol2bus.snoop_filter.tot_snoops              0                       # Total number of snoops made to the snoop filter.
system.clk_domain.clock                          1000                       # Clock period in ticks
system.cpu.branchPred.lookups                19662056                       # Number of BP lookups
system.cpu.branchPred.condPredicted          15821507                       # Number of conditional branches predicted
system.cpu.branchPred.condIncorrect             88864                       # Number of conditional branches incorrect
system.cpu.branchPred.BTBLookups              8076200                       # Number of BTB lookups
system.cpu.branchPred.BTBHits                 8062873                       # Number of BTB hits
system.cpu.branchPred.BTBHitPct             99.834984                       # BTB Hit Percentage
system.cpu.branchPred.RASUsed                 1050665                       # Number of times the RAS was used to get a target.
system.cpu.branchPred.RASIncorrect                468                       # Number of incorrect RAS predictions.
system.cpu.branchPred.indirectLookups          422690                       # Number of indirect predictor lookups.
system.cpu.branchPred.indirectHits             287881                       # Number of indirect target hits.
system.cpu.branchPred.indirectMisses           134809                       # Number of indirect misses.
system.cpu.branchPred.indirectMispredicted          993                       # Number of mispredicted indirect branches.
system.cpu.dcache.demand_hits::.cpu.data     35001212                       # number of demand (read+write) hits
system.cpu.dcache.demand_hits::total         35001212                       # number of demand (read+write) hits
system.cpu.dcache.overall_hits::.cpu.data     35004316                       # number of overall hits
system.cpu.dcache.overall_hits::total        35004316                       # number of overall hits
system.cpu.dcache.demand_misses::.cpu.data        37587                       # number of demand (read+write) misses
system.cpu.dcache.demand_misses::total          37587                       # number of demand (read+write) misses
system.cpu.dcache.overall_misses::.cpu.data        37612                       # number of overall misses
system.cpu.dcache.overall_misses::total         37612                       # number of overall misses
system.cpu.dcache.demand_miss_latency::.cpu.data   2429971500                       # number of demand (read+write) miss cycles
system.cpu.dcache.demand_miss_latency::total   2429971500                       # number of demand (read+write) miss cycles
system.cpu.dcache.overall_miss_latency::.cpu.data   2429971500                       # number of overall miss cycles
system.cpu.dcache.overall_miss_latency::total   2429971500                       # number of overall miss cycles
system.cpu.dcache.demand_accesses::.cpu.data     35038799                       # number of demand (read+write) accesses
system.cpu.dcache.demand_accesses::total     35038799                       # number of demand (read+write) accesses
system.cpu.dcache.overall_accesses::.cpu.data     35041928                       # number of overall (read+write) accesses
system.cpu.dcache.overall_accesses::total     35041928                       # number of overall (read+write) accesses
system.cpu.dcache.demand_miss_rate::.cpu.data     0.001073                       # miss rate for demand accesses
system.cpu.dcache.demand_miss_rate::total     0.001073                       # miss rate for demand accesses
system.cpu.dcache.overall_miss_rate::.cpu.data     0.001073                       # miss rate for overall accesses
system.cpu.dcache.overall_miss_rate::total     0.001073                       # miss rate for overall accesses
system.cpu.dcache.demand_avg_miss_latency::.cpu.data 64649.253731                       # average overall miss latency
system.cpu.dcache.demand_avg_miss_latency::total 64649.253731                       # average overall miss latency
system.cpu.dcache.overall_avg_miss_latency::.cpu.data 64606.282569                       # average overall miss latency
system.cpu.dcache.overall_avg_miss_latency::total 64606.282569                       # average overall miss latency
system.cpu.dcache.blocked_cycles::no_mshrs            0                       # number of cycles access was blocked
system.cpu.dcache.blocked_cycles::no_targets            0                       # number of cycles access was blocked
system.cpu.dcache.blocked::no_mshrs                 0                       # number of cycles access was blocked
system.cpu.dcache.blocked::no_targets               0                       # number of cycles access was blocked
system.cpu.dcache.avg_blocked_cycles::no_mshrs          nan                       # average number of cycles each access was blocked
system.cpu.dcache.avg_blocked_cycles::no_targets          nan                       # average number of cycles each access was blocked
system.cpu.dcache.writebacks::.writebacks        27315                       # number of writebacks
system.cpu.dcache.writebacks::total             27315                       # number of writebacks
system.cpu.dcache.demand_mshr_hits::.cpu.data         8760                       # number of demand (read+write) MSHR hits
system.cpu.dcache.demand_mshr_hits::total         8760                       # number of demand (read+write) MSHR hits
system.cpu.dcache.overall_mshr_hits::.cpu.data         8760                       # number of overall MSHR hits
system.cpu.dcache.overall_mshr_hits::total         8760                       # number of overall MSHR hits
system.cpu.dcache.demand_mshr_misses::.cpu.data        28827                       # number of demand (read+write) MSHR misses
system.cpu.dcache.demand_mshr_misses::total        28827                       # number of demand (read+write) MSHR misses
system.cpu.dcache.overall_mshr_misses::.cpu.data        28840                       # number of overall MSHR misses
system.cpu.dcache.overall_mshr_misses::total        28840                       # number of overall MSHR misses
system.cpu.dcache.demand_mshr_miss_latency::.cpu.data   1813079500                       # number of demand (read+write) MSHR miss cycles
system.cpu.dcache.demand_mshr_miss_latency::total   1813079500                       # number of demand (read+write) MSHR miss cycles
system.cpu.dcache.overall_mshr_miss_latency::.cpu.data   1813994000                       # number of overall MSHR miss cycles
system.cpu.dcache.overall_mshr_miss_latency::total   1813994000                       # number of overall MSHR miss cycles
system.cpu.dcache.demand_mshr_miss_rate::.cpu.data     0.000823                       # mshr miss rate for demand accesses
system.cpu.dcache.demand_mshr_miss_rate::total     0.000823                       # mshr miss rate for demand accesses
system.cpu.dcache.overall_mshr_miss_rate::.cpu.data     0.000823                       # mshr miss rate for overall accesses
system.cpu.dcache.overall_mshr_miss_rate::total     0.000823                       # mshr miss rate for overall accesses
system.cpu.dcache.demand_avg_mshr_miss_latency::.cpu.data 62895.185070                       # average overall mshr miss latency
system.cpu.dcache.demand_avg_mshr_miss_latency::total 62895.185070                       # average overall mshr miss latency
system.cpu.dcache.overall_avg_mshr_miss_latency::.cpu.data 62898.543689                       # average overall mshr miss latency
system.cpu.dcache.overall_avg_mshr_miss_latency::total 62898.543689                       # average overall mshr miss latency
system.cpu.dcache.replacements                  27816                       # number of replacements
system.cpu.dcache.ReadReq_hits::.cpu.data     20847116                       # number of ReadReq hits
system.cpu.dcache.ReadReq_hits::total        20847116                       # number of ReadReq hits
system.cpu.dcache.ReadReq_misses::.cpu.data        10351                       # number of ReadReq misses
system.cpu.dcache.ReadReq_misses::total         10351                       # number of ReadReq misses
system.cpu.dcache.ReadReq_miss_latency::.cpu.data    150204000                       # number of ReadReq miss cycles
system.cpu.dcache.ReadReq_miss_latency::total    150204000                       # number of ReadReq miss cycles
system.cpu.dcache.ReadReq_accesses::.cpu.data     20857467                       # number of ReadReq accesses(hits+misses)
system.cpu.dcache.ReadReq_accesses::total     20857467                       # number of ReadReq accesses(hits+misses)
system.cpu.dcache.ReadReq_miss_rate::.cpu.data     0.000496                       # miss rate for ReadReq accesses
system.cpu.dcache.ReadReq_miss_rate::total     0.000496                       # miss rate for ReadReq accesses
system.cpu.dcache.ReadReq_avg_miss_latency::.cpu.data 14511.061733                       # average ReadReq miss latency
system.cpu.dcache.ReadReq_avg_miss_latency::total 14511.061733                       # average ReadReq miss latency
system.cpu.dcache.ReadReq_mshr_hits::.cpu.data          500                       # number of ReadReq MSHR hits
system.cpu.dcache.ReadReq_mshr_hits::total          500                       # number of ReadReq MSHR hits
system.cpu.dcache.ReadReq_mshr_misses::.cpu.data         9851                       # number of ReadReq MSHR misses
system.cpu.dcache.ReadReq_mshr_misses::total         9851                       # number of ReadReq MSHR misses
system.cpu.dcache.ReadReq_mshr_miss_latency::.cpu.data    127708500                       # number of ReadReq MSHR miss cycles
system.cpu.dcache.ReadReq_mshr_miss_latency::total    127708500                       # number of ReadReq MSHR miss cycles
system.cpu.dcache.ReadReq_mshr_miss_rate::.cpu.data     0.000472                       # mshr miss rate for ReadReq accesses
system.cpu.dcache.ReadReq_mshr_miss_rate::total     0.000472                       # mshr miss rate for ReadReq accesses
system.cpu.dcache.ReadReq_avg_mshr_miss_latency::.cpu.data 12964.013806                       # average ReadReq mshr miss latency
system.cpu.dcache.ReadReq_avg_mshr_miss_latency::total 12964.013806                       # average ReadReq mshr miss latency
system.cpu.dcache.WriteReq_hits::.cpu.data     14154096                       # number of WriteReq hits
system.cpu.dcache.WriteReq_hits::total       14154096                       # number of WriteReq hits
system.cpu.dcache.WriteReq_misses::.cpu.data        27236                       # number of WriteReq misses
system.cpu.dcache.WriteReq_misses::total        27236                       # number of WriteReq misses
system.cpu.dcache.WriteReq_miss_latency::.cpu.data   2279767500                       # number of WriteReq miss cycles
system.cpu.dcache.WriteReq_miss_latency::total   2279767500                       # number of WriteReq miss cycles
system.cpu.dcache.WriteReq_accesses::.cpu.data     14181332                       # number of WriteReq accesses(hits+misses)
system.cpu.dcache.WriteReq_accesses::total     14181332                       # number of WriteReq accesses(hits+misses)
system.cpu.dcache.WriteReq_miss_rate::.cpu.data     0.001921                       # miss rate for WriteReq accesses
system.cpu.dcache.WriteReq_miss_rate::total     0.001921                       # miss rate for WriteReq accesses
system.cpu.dcache.WriteReq_avg_miss_latency::.cpu.data 83704.196651                       # average WriteReq miss latency
system.cpu.dcache.WriteReq_avg_miss_latency::total 83704.196651                       # average WriteReq miss latency
system.cpu.dcache.WriteReq_mshr_hits::.cpu.data         8260                       # number of WriteReq MSHR hits
system.cpu.dcache.WriteReq_mshr_hits::total         8260                       # number of WriteReq MSHR hits
system.cpu.dcache.WriteReq_mshr_misses::.cpu.data        18976                       # number of WriteReq MSHR misses
system.cpu.dcache.WriteReq_mshr_misses::total        18976                       # number of WriteReq MSHR misses
system.cpu.dcache.WriteReq_mshr_miss_latency::.cpu.data   1685371000                       # number of WriteReq MSHR miss cycles
system.cpu.dcache.WriteReq_mshr_miss_latency::total   1685371000                       # number of WriteReq MSHR miss cycles
system.cpu.dcache.WriteReq_mshr_miss_rate::.cpu.data     0.001338                       # mshr miss rate for WriteReq accesses
system.cpu.dcache.WriteReq_mshr_miss_rate::total     0.001338                       # mshr miss rate for WriteReq accesses
system.cpu.dcache.WriteReq_avg_mshr_miss_latency::.cpu.data 88815.925379                       # average WriteReq mshr miss latency
system.cpu.dcache.WriteReq_avg_mshr_miss_latency::total 88815.925379                       # average WriteReq mshr miss latency
system.cpu.dcache.SoftPFReq_hits::.cpu.data         3104                       # number of SoftPFReq hits
system.cpu.dcache.SoftPFReq_hits::total          3104                       # number of SoftPFReq hits
system.cpu.dcache.SoftPFReq_misses::.cpu.data           25                       # number of SoftPFReq misses
system.cpu.dcache.SoftPFReq_misses::total           25                       # number of SoftPFReq misses
system.cpu.dcache.SoftPFReq_accesses::.cpu.data         3129                       # number of SoftPFReq accesses(hits+misses)
system.cpu.dcache.SoftPFReq_accesses::total         3129                       # number of SoftPFReq accesses(hits+misses)
system.cpu.dcache.SoftPFReq_miss_rate::.cpu.data     0.007990                       # miss rate for SoftPFReq accesses
system.cpu.dcache.SoftPFReq_miss_rate::total     0.007990                       # miss rate for SoftPFReq accesses
system.cpu.dcache.SoftPFReq_mshr_misses::.cpu.data           13                       # number of SoftPFReq MSHR misses
system.cpu.dcache.SoftPFReq_mshr_misses::total           13                       # number of SoftPFReq MSHR misses
system.cpu.dcache.SoftPFReq_mshr_miss_latency::.cpu.data       914500                       # number of SoftPFReq MSHR miss cycles
system.cpu.dcache.SoftPFReq_mshr_miss_latency::total       914500                       # number of SoftPFReq MSHR miss cycles
system.cpu.dcache.SoftPFReq_mshr_miss_rate::.cpu.data     0.004155                       # mshr miss rate for SoftPFReq accesses
system.cpu.dcache.SoftPFReq_mshr_miss_rate::total     0.004155                       # mshr miss rate for SoftPFReq accesses
system.cpu.dcache.SoftPFReq_avg_mshr_miss_latency::.cpu.data 70346.153846                       # average SoftPFReq mshr miss latency
system.cpu.dcache.SoftPFReq_avg_mshr_miss_latency::total 70346.153846                       # average SoftPFReq mshr miss latency
system.cpu.dcache.LoadLockedReq_hits::.cpu.data        85610                       # number of LoadLockedReq hits
system.cpu.dcache.LoadLockedReq_hits::total        85610                       # number of LoadLockedReq hits
system.cpu.dcache.LoadLockedReq_accesses::.cpu.data        85610                       # number of LoadLockedReq accesses(hits+misses)
system.cpu.dcache.LoadLockedReq_accesses::total        85610                       # number of LoadLockedReq accesses(hits+misses)
system.cpu.dcache.StoreCondReq_hits::.cpu.data        85610                       # number of StoreCondReq hits
system.cpu.dcache.StoreCondReq_hits::total        85610                       # number of StoreCondReq hits
system.cpu.dcache.StoreCondReq_accesses::.cpu.data        85610                       # number of StoreCondReq accesses(hits+misses)
system.cpu.dcache.StoreCondReq_accesses::total        85610                       # number of StoreCondReq accesses(hits+misses)
system.cpu.dcache.power_state.pwrStateResidencyTicks::UNDEFINED  54202460000                       # Cumulative time (in ticks) in various power states
system.cpu.dcache.tags.tagsinuse          1018.001886                       # Cycle average of tags in use
system.cpu.dcache.tags.total_refs            35204376                       # Total number of references to valid blocks.
system.cpu.dcache.tags.sampled_refs             28840                       # Sample count of references to valid blocks.
system.cpu.dcache.tags.avg_refs           1220.678779                       # Average number of references to valid blocks.
system.cpu.dcache.tags.warmup_cycle            186500                       # Cycle when the warmup percentage was hit.
system.cpu.dcache.tags.occ_blocks::.cpu.data  1018.001886                       # Average occupied blocks per requestor
system.cpu.dcache.tags.occ_percent::.cpu.data     0.994142                       # Average percentage of cache occupancy
system.cpu.dcache.tags.occ_percent::total     0.994142                       # Average percentage of cache occupancy
system.cpu.dcache.tags.occ_task_id_blocks::1024         1024                       # Occupied blocks per task id
system.cpu.dcache.tags.age_task_id_blocks_1024::0            3                       # Occupied blocks per task id
system.cpu.dcache.tags.age_task_id_blocks_1024::1           22                       # Occupied blocks per task id
system.cpu.dcache.tags.age_task_id_blocks_1024::2          300                       # Occupied blocks per task id
system.cpu.dcache.tags.age_task_id_blocks_1024::3          617                       # Occupied blocks per task id
system.cpu.dcache.tags.age_task_id_blocks_1024::4           82                       # Occupied blocks per task id
system.cpu.dcache.tags.occ_task_id_percent::1024            1                       # Percentage of cache occupancy per task id
system.cpu.dcache.tags.tag_accesses         281734024                       # Number of tag accesses
system.cpu.dcache.tags.data_accesses        281734024                       # Number of data accesses
system.cpu.dcache.tags.power_state.pwrStateResidencyTicks::UNDEFINED  54202460000                       # Cumulative time (in ticks) in various power states
system.cpu.dtb.instHits                             0                       # ITB inst hits
system.cpu.dtb.instMisses                           0                       # ITB inst misses
system.cpu.dtb.readHits                             0                       # DTB read hits
system.cpu.dtb.readMisses                           0                       # DTB read misses
system.cpu.dtb.writeHits                            0                       # DTB write hits
system.cpu.dtb.writeMisses                          0                       # DTB write misses
system.cpu.dtb.inserts                              0                       # Number of times an entry is inserted into the TLB
system.cpu.dtb.flushTlb                             0                       # Number of times complete TLB was flushed
system.cpu.dtb.flushTlbMva                          0                       # Number of times TLB was flushed by MVA
system.cpu.dtb.flushTlbMvaAsid                      0                       # Number of times TLB was flushed by MVA & ASID
system.cpu.dtb.flushTlbAsid                         0                       # Number of times TLB was flushed by ASID
system.cpu.dtb.flushedEntries                       0                       # Number of entries that have been flushed from TLB
system.cpu.dtb.alignFaults                          0                       # Number of TLB faults due to alignment restrictions
system.cpu.dtb.prefetchFaults                       0                       # Number of TLB faults due to prefetch
system.cpu.dtb.domainFaults                         0                       # Number of TLB faults due to domain restrictions
system.cpu.dtb.permsFaults                          0                       # Number of TLB faults due to permissions restrictions
system.cpu.dtb.readAccesses                         0                       # DTB read accesses
system.cpu.dtb.writeAccesses                        0                       # DTB write accesses
system.cpu.dtb.instAccesses                         0                       # ITB inst accesses
system.cpu.dtb.hits                                 0                       # Total TLB (inst and data) hits
system.cpu.dtb.misses                               0                       # Total TLB (inst and data) misses
system.cpu.dtb.accesses                             0                       # Total TLB (inst and data) accesses
system.cpu.dtb.stage2_mmu.stage2_tlb.instHits            0                       # ITB inst hits
system.cpu.dtb.stage2_mmu.stage2_tlb.instMisses            0                       # ITB inst misses
system.cpu.dtb.stage2_mmu.stage2_tlb.readHits            0                       # DTB read hits
system.cpu.dtb.stage2_mmu.stage2_tlb.readMisses            0                       # DTB read misses
system.cpu.dtb.stage2_mmu.stage2_tlb.writeHits            0                       # DTB write hits
system.cpu.dtb.stage2_mmu.stage2_tlb.writeMisses            0                       # DTB write misses
system.cpu.dtb.stage2_mmu.stage2_tlb.inserts            0                       # Number of times an entry is inserted into the TLB
system.cpu.dtb.stage2_mmu.stage2_tlb.flushTlb            0                       # Number of times complete TLB was flushed
system.cpu.dtb.stage2_mmu.stage2_tlb.flushTlbMva            0                       # Number of times TLB was flushed by MVA
system.cpu.dtb.stage2_mmu.stage2_tlb.flushTlbMvaAsid            0                       # Number of times TLB was flushed by MVA & ASID
system.cpu.dtb.stage2_mmu.stage2_tlb.flushTlbAsid            0                       # Number of times TLB was flushed by ASID
system.cpu.dtb.stage2_mmu.stage2_tlb.flushedEntries            0                       # Number of entries that have been flushed from TLB
system.cpu.dtb.stage2_mmu.stage2_tlb.alignFaults            0                       # Number of TLB faults due to alignment restrictions
system.cpu.dtb.stage2_mmu.stage2_tlb.prefetchFaults            0                       # Number of TLB faults due to prefetch
system.cpu.dtb.stage2_mmu.stage2_tlb.domainFaults            0                       # Number of TLB faults due to domain restrictions
system.cpu.dtb.stage2_mmu.stage2_tlb.permsFaults            0                       # Number of TLB faults due to permissions restrictions
system.cpu.dtb.stage2_mmu.stage2_tlb.readAccesses            0                       # DTB read accesses
system.cpu.dtb.stage2_mmu.stage2_tlb.writeAccesses            0                       # DTB write accesses
system.cpu.dtb.stage2_mmu.stage2_tlb.instAccesses            0                       # ITB inst accesses
system.cpu.dtb.stage2_mmu.stage2_tlb.hits            0                       # Total TLB (inst and data) hits
system.cpu.dtb.stage2_mmu.stage2_tlb.misses            0                       # Total TLB (inst and data) misses
system.cpu.dtb.stage2_mmu.stage2_tlb.accesses            0                       # Total TLB (inst and data) accesses
system.cpu.dtb.stage2_mmu.stage2_tlb.walker.walks            0                       # Table walker walks requested
system.cpu.dtb.stage2_mmu.stage2_tlb.walker.requestOrigin_Requested::Data            0                       # Table walker requests started/completed, data/inst
system.cpu.dtb.stage2_mmu.stage2_tlb.walker.requestOrigin_Requested::Inst            0                       # Table walker requests started/completed, data/inst
system.cpu.dtb.stage2_mmu.stage2_tlb.walker.requestOrigin_Requested::total            0                       # Table walker requests started/completed, data/inst
system.cpu.dtb.stage2_mmu.stage2_tlb.walker.requestOrigin_Completed::Data            0                       # Table walker requests started/completed, data/inst
system.cpu.dtb.stage2_mmu.stage2_tlb.walker.requestOrigin_Completed::Inst            0                       # Table walker requests started/completed, data/inst
system.cpu.dtb.stage2_mmu.stage2_tlb.walker.requestOrigin_Completed::total            0                       # Table walker requests started/completed, data/inst
system.cpu.dtb.stage2_mmu.stage2_tlb.walker.requestOrigin::total            0                       # Table walker requests started/completed, data/inst
system.cpu.dtb.stage2_mmu.stage2_tlb.walker.power_state.pwrStateResidencyTicks::UNDEFINED  54202460000                       # Cumulative time (in ticks) in various power states
system.cpu.dtb.walker.walks                         0                       # Table walker walks requested
system.cpu.dtb.walker.requestOrigin_Requested::Data            0                       # Table walker requests started/completed, data/inst
system.cpu.dtb.walker.requestOrigin_Requested::Inst            0                       # Table walker requests started/completed, data/inst
system.cpu.dtb.walker.requestOrigin_Requested::total            0                       # Table walker requests started/completed, data/inst
system.cpu.dtb.walker.requestOrigin_Completed::Data            0                       # Table walker requests started/completed, data/inst
system.cpu.dtb.walker.requestOrigin_Completed::Inst            0                       # Table walker requests started/completed, data/inst
system.cpu.dtb.walker.requestOrigin_Completed::total            0                       # Table walker requests started/completed, data/inst
system.cpu.dtb.walker.requestOrigin::total            0                       # Table walker requests started/completed, data/inst
system.cpu.dtb.walker.power_state.pwrStateResidencyTicks::UNDEFINED  54202460000                       # Cumulative time (in ticks) in various power states
system.cpu.fetch2.intInstructions            49128177                       # Number of integer instructions successfully decoded
system.cpu.fetch2.fpInstructions                    0                       # Number of floating point instructions successfully decoded
system.cpu.fetch2.vecInstructions                   0                       # Number of SIMD instructions successfully decoded
system.cpu.fetch2.loadInstructions           17537302                       # Number of memory load instructions successfully decoded
system.cpu.fetch2.storeInstructions          10086740                       # Number of memory store instructions successfully decoded
system.cpu.fetch2.amoInstructions                   0                       # Number of memory atomic instructions successfully decoded
system.cpu.icache.demand_hits::.cpu.inst     25656071                       # number of demand (read+write) hits
system.cpu.icache.demand_hits::total         25656071                       # number of demand (read+write) hits
system.cpu.icache.overall_hits::.cpu.inst     25656071                       # number of overall hits
system.cpu.icache.overall_hits::total        25656071                       # number of overall hits
system.cpu.icache.demand_misses::.cpu.inst          344                       # number of demand (read+write) misses
system.cpu.icache.demand_misses::total            344                       # number of demand (read+write) misses
system.cpu.icache.overall_misses::.cpu.inst          344                       # number of overall misses
system.cpu.icache.overall_misses::total           344                       # number of overall misses
system.cpu.icache.demand_miss_latency::.cpu.inst     28383000                       # number of demand (read+write) miss cycles
system.cpu.icache.demand_miss_latency::total     28383000                       # number of demand (read+write) miss cycles
system.cpu.icache.overall_miss_latency::.cpu.inst     28383000                       # number of overall miss cycles
system.cpu.icache.overall_miss_latency::total     28383000                       # number of overall miss cycles
system.cpu.icache.demand_accesses::.cpu.inst     25656415                       # number of demand (read+write) accesses
system.cpu.icache.demand_accesses::total     25656415                       # number of demand (read+write) accesses
system.cpu.icache.overall_accesses::.cpu.inst     25656415                       # number of overall (read+write) accesses
system.cpu.icache.overall_accesses::total     25656415                       # number of overall (read+write) accesses
system.cpu.icache.demand_miss_rate::.cpu.inst     0.000013                       # miss rate for demand accesses
system.cpu.icache.demand_miss_rate::total     0.000013                       # miss rate for demand accesses
system.cpu.icache.overall_miss_rate::.cpu.inst     0.000013                       # miss rate for overall accesses
system.cpu.icache.overall_miss_rate::total     0.000013                       # miss rate for overall accesses
system.cpu.icache.demand_avg_miss_latency::.cpu.inst 82508.720930                       # average overall miss latency
system.cpu.icache.demand_avg_miss_latency::total 82508.720930                       # average overall miss latency
system.cpu.icache.overall_avg_miss_latency::.cpu.inst 82508.720930                       # average overall miss latency
system.cpu.icache.overall_avg_miss_latency::total 82508.720930                       # average overall miss latency
system.cpu.icache.blocked_cycles::no_mshrs            0                       # number of cycles access was blocked
system.cpu.icache.blocked_cycles::no_targets            0                       # number of cycles access was blocked
system.cpu.icache.blocked::no_mshrs                 0                       # number of cycles access was blocked
system.cpu.icache.blocked::no_targets               0                       # number of cycles access was blocked
system.cpu.icache.avg_blocked_cycles::no_mshrs          nan                       # average number of cycles each access was blocked
system.cpu.icache.avg_blocked_cycles::no_targets          nan                       # average number of cycles each access was blocked
system.cpu.icache.writebacks::.writebacks            1                       # number of writebacks
system.cpu.icache.writebacks::total                 1                       # number of writebacks
system.cpu.icache.demand_mshr_misses::.cpu.inst          344                       # number of demand (read+write) MSHR misses
system.cpu.icache.demand_mshr_misses::total          344                       # number of demand (read+write) MSHR misses
system.cpu.icache.overall_mshr_misses::.cpu.inst          344                       # number of overall MSHR misses
system.cpu.icache.overall_mshr_misses::total          344                       # number of overall MSHR misses
system.cpu.icache.demand_mshr_miss_latency::.cpu.inst     28039000                       # number of demand (read+write) MSHR miss cycles
system.cpu.icache.demand_mshr_miss_latency::total     28039000                       # number of demand (read+write) MSHR miss cycles
system.cpu.icache.overall_mshr_miss_latency::.cpu.inst     28039000                       # number of overall MSHR miss cycles
system.cpu.icache.overall_mshr_miss_latency::total     28039000                       # number of overall MSHR miss cycles
system.cpu.icache.demand_mshr_miss_rate::.cpu.inst     0.000013                       # mshr miss rate for demand accesses
system.cpu.icache.demand_mshr_miss_rate::total     0.000013                       # mshr miss rate for demand accesses
system.cpu.icache.overall_mshr_miss_rate::.cpu.inst     0.000013                       # mshr miss rate for overall accesses
system.cpu.icache.overall_mshr_miss_rate::total     0.000013                       # mshr miss rate for overall accesses
system.cpu.icache.demand_avg_mshr_miss_latency::.cpu.inst 81508.720930                       # average overall mshr miss latency
system.cpu.icache.demand_avg_mshr_miss_latency::total 81508.720930                       # average overall mshr miss latency
system.cpu.icache.overall_avg_mshr_miss_latency::.cpu.inst 81508.720930                       # average overall mshr miss latency
system.cpu.icache.overall_avg_mshr_miss_latency::total 81508.720930                       # average overall mshr miss latency
system.cpu.icache.replacements                      1                       # number of replacements
system.cpu.icache.ReadReq_hits::.cpu.inst     25656071                       # number of ReadReq hits
system.cpu.icache.ReadReq_hits::total        25656071                       # number of ReadReq hits
system.cpu.icache.ReadReq_misses::.cpu.inst          344                       # number of ReadReq misses
system.cpu.icache.ReadReq_misses::total           344                       # number of ReadReq misses
system.cpu.icache.ReadReq_miss_latency::.cpu.inst     28383000                       # number of ReadReq miss cycles
system.cpu.icache.ReadReq_miss_latency::total     28383000                       # number of ReadReq miss cycles
system.cpu.icache.ReadReq_accesses::.cpu.inst     25656415                       # number of ReadReq accesses(hits+misses)
system.cpu.icache.ReadReq_accesses::total     25656415                       # number of ReadReq accesses(hits+misses)
system.cpu.icache.ReadReq_miss_rate::.cpu.inst     0.000013                       # miss rate for ReadReq accesses
system.cpu.icache.ReadReq_miss_rate::total     0.000013                       # miss rate for ReadReq accesses
system.cpu.icache.ReadReq_avg_miss_latency::.cpu.inst 82508.720930                       # average ReadReq miss latency
system.cpu.icache.ReadReq_avg_miss_latency::total 82508.720930                       # average ReadReq miss latency
system.cpu.icache.ReadReq_mshr_misses::.cpu.inst          344                       # number of ReadReq MSHR misses
system.cpu.icache.ReadReq_mshr_misses::total          344                       # number of ReadReq MSHR misses
system.cpu.icache.ReadReq_mshr_miss_latency::.cpu.inst     28039000                       # number of ReadReq MSHR miss cycles
system.cpu.icache.ReadReq_mshr_miss_latency::total     28039000                       # number of ReadReq MSHR miss cycles
system.cpu.icache.ReadReq_mshr_miss_rate::.cpu.inst     0.000013                       # mshr miss rate for ReadReq accesses
system.cpu.icache.ReadReq_mshr_miss_rate::total     0.000013                       # mshr miss rate for ReadReq accesses
system.cpu.icache.ReadReq_avg_mshr_miss_latency::.cpu.inst 81508.720930                       # average ReadReq mshr miss latency
system.cpu.icache.ReadReq_avg_mshr_miss_latency::total 81508.720930                       # average ReadReq mshr miss latency
system.cpu.icache.power_state.pwrStateResidencyTicks::UNDEFINED  54202460000                       # Cumulative time (in ticks) in various power states
system.cpu.icache.tags.tagsinuse           342.603930                       # Cycle average of tags in use
system.cpu.icache.tags.total_refs            25656415                       # Total number of references to valid blocks.
system.cpu.icache.tags.sampled_refs               344                       # Sample count of references to valid blocks.
system.cpu.icache.tags.avg_refs          74582.601744                       # Average number of references to valid blocks.
system.cpu.icache.tags.warmup_cycle             92500                       # Cycle when the warmup percentage was hit.
system.cpu.icache.tags.occ_blocks::.cpu.inst   342.603930                       # Average occupied blocks per requestor
system.cpu.icache.tags.occ_percent::.cpu.inst     0.669148                       # Average percentage of cache occupancy
system.cpu.icache.tags.occ_percent::total     0.669148                       # Average percentage of cache occupancy
system.cpu.icache.tags.occ_task_id_blocks::1024          343                       # Occupied blocks per task id
system.cpu.icache.tags.age_task_id_blocks_1024::4          343                       # Occupied blocks per task id
system.cpu.icache.tags.occ_task_id_percent::1024     0.669922                       # Percentage of cache occupancy per task id
system.cpu.icache.tags.tag_accesses         205251664                       # Number of tag accesses
system.cpu.icache.tags.data_accesses        205251664                       # Number of data accesses
system.cpu.icache.tags.power_state.pwrStateResidencyTicks::UNDEFINED  54202460000                       # Cumulative time (in ticks) in various power states
system.cpu.itb.instHits                             0                       # ITB inst hits
system.cpu.itb.instMisses                           0                       # ITB inst misses
system.cpu.itb.readHits                             0                       # DTB read hits
system.cpu.itb.readMisses                           0                       # DTB read misses
system.cpu.itb.writeHits                            0                       # DTB write hits
system.cpu.itb.writeMisses                          0                       # DTB write misses
system.cpu.itb.inserts                              0                       # Number of times an entry is inserted into the TLB
system.cpu.itb.flushTlb                             0                       # Number of times complete TLB was flushed
system.cpu.itb.flushTlbMva                          0                       # Number of times TLB was flushed by MVA
system.cpu.itb.flushTlbMvaAsid                      0                       # Number of times TLB was flushed by MVA & ASID
system.cpu.itb.flushTlbAsid                         0                       # Number of times TLB was flushed by ASID
system.cpu.itb.flushedEntries                       0                       # Number of entries that have been flushed from TLB
system.cpu.itb.alignFaults                          0                       # Number of TLB faults due to alignment restrictions
system.cpu.itb.prefetchFaults                       0                       # Number of TLB faults due to prefetch
system.cpu.itb.domainFaults                         0                       # Number of TLB faults due to domain restrictions
system.cpu.itb.permsFaults                          0                       # Number of TLB faults due to permissions restrictions
system.cpu.itb.readAccesses                         0                       # DTB read accesses
system.cpu.itb.writeAccesses                        0                       # DTB write accesses
system.cpu.itb.instAccesses                         0                       # ITB inst accesses
system.cpu.itb.hits                                 0                       # Total TLB (inst and data) hits
system.cpu.itb.misses                               0                       # Total TLB (inst and data) misses
system.cpu.itb.accesses                             0                       # Total TLB (inst and data) accesses
system.cpu.itb.stage2_mmu.stage2_tlb.instHits            0                       # ITB inst hits
system.cpu.itb.stage2_mmu.stage2_tlb.instMisses            0                       # ITB inst misses
system.cpu.itb.stage2_mmu.stage2_tlb.readHits            0                       # DTB read hits
system.cpu.itb.stage2_mmu.stage2_tlb.readMisses            0                       # DTB read misses
system.cpu.itb.stage2_mmu.stage2_tlb.writeHits            0                       # DTB write hits
system.cpu.itb.stage2_mmu.stage2_tlb.writeMisses            0                       # DTB write misses
system.cpu.itb.stage2_mmu.stage2_tlb.inserts            0                       # Number of times an entry is inserted into the TLB
system.cpu.itb.stage2_mmu.stage2_tlb.flushTlb            0                       # Number of times complete TLB was flushed
system.cpu.itb.stage2_mmu.stage2_tlb.flushTlbMva            0                       # Number of times TLB was flushed by MVA
system.cpu.itb.stage2_mmu.stage2_tlb.flushTlbMvaAsid            0                       # Number of times TLB was flushed by MVA & ASID
system.cpu.itb.stage2_mmu.stage2_tlb.flushTlbAsid            0                       # Number of times TLB was flushed by ASID
system.cpu.itb.stage2_mmu.stage2_tlb.flushedEntries            0                       # Number of entries that have been flushed from TLB
system.cpu.itb.stage2_mmu.stage2_tlb.alignFaults            0                       # Number of TLB faults due to alignment restrictions
system.cpu.itb.stage2_mmu.stage2_tlb.prefetchFaults            0                       # Number of TLB faults due to prefetch
system.cpu.itb.stage2_mmu.stage2_tlb.domainFaults            0                       # Number of TLB faults due to domain restrictions
system.cpu.itb.stage2_mmu.stage2_tlb.permsFaults            0                       # Number of TLB faults due to permissions restrictions
system.cpu.itb.stage2_mmu.stage2_tlb.readAccesses            0                       # DTB read accesses
system.cpu.itb.stage2_mmu.stage2_tlb.writeAccesses            0                       # DTB write accesses
system.cpu.itb.stage2_mmu.stage2_tlb.instAccesses            0                       # ITB inst accesses
system.cpu.itb.stage2_mmu.stage2_tlb.hits            0                       # Total TLB (inst and data) hits
system.cpu.itb.stage2_mmu.stage2_tlb.misses            0                       # Total TLB (inst and data) misses
system.cpu.itb.stage2_mmu.stage2_tlb.accesses            0                       # Total TLB (inst and data) accesses
system.cpu.itb.stage2_mmu.stage2_tlb.walker.walks            0                       # Table walker walks requested
system.cpu.itb.stage2_mmu.stage2_tlb.walker.requestOrigin_Requested::Data            0                       # Table walker requests started/completed, data/inst
system.cpu.itb.stage2_mmu.stage2_tlb.walker.requestOrigin_Requested::Inst            0                       # Table walker requests started/completed, data/inst
system.cpu.itb.stage2_mmu.stage2_tlb.walker.requestOrigin_Requested::total            0                       # Table walker requests started/completed, data/inst
system.cpu.itb.stage2_mmu.stage2_tlb.walker.requestOrigin_Completed::Data            0                       # Table walker requests started/completed, data/inst
system.cpu.itb.stage2_mmu.stage2_tlb.walker.requestOrigin_Completed::Inst            0                       # Table walker requests started/completed, data/inst
system.cpu.itb.stage2_mmu.stage2_tlb.walker.requestOrigin_Completed::total            0                       # Table walker requests started/completed, data/inst
system.cpu.itb.stage2_mmu.stage2_tlb.walker.requestOrigin::total            0                       # Table walker requests started/completed, data/inst
system.cpu.itb.stage2_mmu.stage2_tlb.walker.power_state.pwrStateResidencyTicks::UNDEFINED  54202460000                       # Cumulative time (in ticks) in various power states
system.cpu.itb.walker.walks                         0                       # Table walker walks requested
system.cpu.itb.walker.requestOrigin_Requested::Data            0                       # Table walker requests started/completed, data/inst
system.cpu.itb.walker.requestOrigin_Requested::Inst            0                       # Table walker requests started/completed, data/inst
system.cpu.itb.walker.requestOrigin_Requested::total            0                       # Table walker requests started/completed, data/inst
system.cpu.itb.walker.requestOrigin_Completed::Data            0                       # Table walker requests started/completed, data/inst
system.cpu.itb.walker.requestOrigin_Completed::Inst            0                       # Table walker requests started/completed, data/inst
system.cpu.itb.walker.requestOrigin_Completed::total            0                       # Table walker requests started/completed, data/inst
system.cpu.itb.walker.requestOrigin::total            0                       # Table walker requests started/completed, data/inst
system.cpu.itb.walker.power_state.pwrStateResidencyTicks::UNDEFINED  54202460000                       # Cumulative time (in ticks) in various power states
system.cpu.power_state.pwrStateResidencyTicks::ON  54202460000                       # Cumulative time (in ticks) in various power states
system.cpu.thread_0.numInsts                100000001                       # Number of Instructions committed
system.cpu.thread_0.numOps                  109139393                       # Number of Ops committed
system.cpu.thread_0.numMemRefs                      0                       # Number of Memory References
system.cpu_clk_domain.clock                       500                       # Clock period in ticks
system.cpu_voltage_domain.voltage                   1                       # Voltage in Volts
system.l2.demand_hits::.cpu.inst                   11                       # number of demand (read+write) hits
system.l2.demand_hits::.cpu.data                 9731                       # number of demand (read+write) hits
system.l2.demand_hits::total                     9742                       # number of demand (read+write) hits
system.l2.overall_hits::.cpu.inst                  11                       # number of overall hits
system.l2.overall_hits::.cpu.data                9731                       # number of overall hits
system.l2.overall_hits::total                    9742                       # number of overall hits
system.l2.demand_misses::.cpu.inst                333                       # number of demand (read+write) misses
system.l2.demand_misses::.cpu.data              19109                       # number of demand (read+write) misses
system.l2.demand_misses::total                  19442                       # number of demand (read+write) misses
system.l2.overall_misses::.cpu.inst               333                       # number of overall misses
system.l2.overall_misses::.cpu.data             19109                       # number of overall misses
system.l2.overall_misses::total                 19442                       # number of overall misses
system.l2.demand_miss_latency::.cpu.inst     27383500                       # number of demand (read+write) miss cycles
system.l2.demand_miss_latency::.cpu.data   1668544000                       # number of demand (read+write) miss cycles
system.l2.demand_miss_latency::total       1695927500                       # number of demand (read+write) miss cycles
system.l2.overall_miss_latency::.cpu.inst     27383500                       # number of overall miss cycles
system.l2.overall_miss_latency::.cpu.data   1668544000                       # number of overall miss cycles
system.l2.overall_miss_latency::total      1695927500                       # number of overall miss cycles
system.l2.demand_accesses::.cpu.inst              344                       # number of demand (read+write) accesses
system.l2.demand_accesses::.cpu.data            28840                       # number of demand (read+write) accesses
system.l2.demand_accesses::total                29184                       # number of demand (read+write) accesses
system.l2.overall_accesses::.cpu.inst             344                       # number of overall (read+write) accesses
system.l2.overall_accesses::.cpu.data           28840                       # number of overall (read+write) accesses
system.l2.overall_accesses::total               29184                       # number of overall (read+write) accesses
system.l2.demand_miss_rate::.cpu.inst        0.968023                       # miss rate for demand accesses
system.l2.demand_miss_rate::.cpu.data        0.662587                       # miss rate for demand accesses
system.l2.demand_miss_rate::total            0.666187                       # miss rate for demand accesses
system.l2.overall_miss_rate::.cpu.inst       0.968023                       # miss rate for overall accesses
system.l2.overall_miss_rate::.cpu.data       0.662587                       # miss rate for overall accesses
system.l2.overall_miss_rate::total           0.666187                       # miss rate for overall accesses
system.l2.demand_avg_miss_latency::.cpu.inst 82232.732733                       # average overall miss latency
system.l2.demand_avg_miss_latency::.cpu.data 87317.180386                       # average overall miss latency
system.l2.demand_avg_miss_latency::total 87230.094640                       # average overall miss latency
system.l2.overall_avg_miss_latency::.cpu.inst 82232.732733                       # average overall miss latency
system.l2.overall_avg_miss_latency::.cpu.data 87317.180386                       # average overall miss latency
system.l2.overall_avg_miss_latency::total 87230.094640                       # average overall miss latency
system.l2.blocked_cycles::no_mshrs                  0                       # number of cycles access was blocked
system.l2.blocked_cycles::no_targets                0                       # number of cycles access was blocked
system.l2.blocked::no_mshrs                         0                       # number of cycles access was blocked
system.l2.blocked::no_targets                       0                       # number of cycles access was blocked
system.l2.avg_blocked_cycles::no_mshrs            nan                       # average number of cycles each access was blocked
system.l2.avg_blocked_cycles::no_targets          nan                       # average number of cycles each access was blocked
system.l2.demand_mshr_hits::.cpu.data               3                       # number of demand (read+write) MSHR hits
system.l2.demand_mshr_hits::total                   3                       # number of demand (read+write) MSHR hits
system.l2.overall_mshr_hits::.cpu.data              3                       # number of overall MSHR hits
system.l2.overall_mshr_hits::total                  3                       # number of overall MSHR hits
system.l2.demand_mshr_misses::.cpu.inst           333                       # number of demand (read+write) MSHR misses
system.l2.demand_mshr_misses::.cpu.data         19106                       # number of demand (read+write) MSHR misses
system.l2.demand_mshr_misses::total             19439                       # number of demand (read+write) MSHR misses
system.l2.overall_mshr_misses::.cpu.inst          333                       # number of overall MSHR misses
system.l2.overall_mshr_misses::.cpu.data        19106                       # number of overall MSHR misses
system.l2.overall_mshr_misses::total            19439                       # number of overall MSHR misses
system.l2.demand_mshr_miss_latency::.cpu.inst     24053500                       # number of demand (read+write) MSHR miss cycles
system.l2.demand_mshr_miss_latency::.cpu.data   1477252000                       # number of demand (read+write) MSHR miss cycles
system.l2.demand_mshr_miss_latency::total   1501305500                       # number of demand (read+write) MSHR miss cycles
system.l2.overall_mshr_miss_latency::.cpu.inst     24053500                       # number of overall MSHR miss cycles
system.l2.overall_mshr_miss_latency::.cpu.data   1477252000                       # number of overall MSHR miss cycles
system.l2.overall_mshr_miss_latency::total   1501305500                       # number of overall MSHR miss cycles
system.l2.demand_mshr_miss_rate::.cpu.inst     0.968023                       # mshr miss rate for demand accesses
system.l2.demand_mshr_miss_rate::.cpu.data     0.662483                       # mshr miss rate for demand accesses
system.l2.demand_mshr_miss_rate::total       0.666084                       # mshr miss rate for demand accesses
system.l2.overall_mshr_miss_rate::.cpu.inst     0.968023                       # mshr miss rate for overall accesses
system.l2.overall_mshr_miss_rate::.cpu.data     0.662483                       # mshr miss rate for overall accesses
system.l2.overall_mshr_miss_rate::total      0.666084                       # mshr miss rate for overall accesses
system.l2.demand_avg_mshr_miss_latency::.cpu.inst 72232.732733                       # average overall mshr miss latency
system.l2.demand_avg_mshr_miss_latency::.cpu.data 77318.748037                       # average overall mshr miss latency
system.l2.demand_avg_mshr_miss_latency::total 77231.621997                       # average overall mshr miss latency
system.l2.overall_avg_mshr_miss_latency::.cpu.inst 72232.732733                       # average overall mshr miss latency
system.l2.overall_avg_mshr_miss_latency::.cpu.data 77318.748037                       # average overall mshr miss latency
system.l2.overall_avg_mshr_miss_latency::total 77231.621997                       # average overall mshr miss latency
system.l2.replacements                              0                       # number of replacements
system.l2.WritebackDirty_hits::.writebacks        27315                       # number of WritebackDirty hits
system.l2.WritebackDirty_hits::total            27315                       # number of WritebackDirty hits
system.l2.WritebackDirty_accesses::.writebacks        27315                       # number of WritebackDirty accesses(hits+misses)
system.l2.WritebackDirty_accesses::total        27315                       # number of WritebackDirty accesses(hits+misses)
system.l2.WritebackClean_hits::.writebacks            1                       # number of WritebackClean hits
system.l2.WritebackClean_hits::total                1                       # number of WritebackClean hits
system.l2.WritebackClean_accesses::.writebacks            1                       # number of WritebackClean accesses(hits+misses)
system.l2.WritebackClean_accesses::total            1                       # number of WritebackClean accesses(hits+misses)
system.l2.ReadExReq_misses::.cpu.data           18976                       # number of ReadExReq misses
system.l2.ReadExReq_misses::total               18976                       # number of ReadExReq misses
system.l2.ReadExReq_miss_latency::.cpu.data   1656905500                       # number of ReadExReq miss cycles
system.l2.ReadExReq_miss_latency::total    1656905500                       # number of ReadExReq miss cycles
system.l2.ReadExReq_accesses::.cpu.data         18976                       # number of ReadExReq accesses(hits+misses)
system.l2.ReadExReq_accesses::total             18976                       # number of ReadExReq accesses(hits+misses)
system.l2.ReadExReq_miss_rate::.cpu.data            1                       # miss rate for ReadExReq accesses
system.l2.ReadExReq_miss_rate::total                1                       # miss rate for ReadExReq accesses
system.l2.ReadExReq_avg_miss_latency::.cpu.data 87315.846332                       # average ReadExReq miss latency
system.l2.ReadExReq_avg_miss_latency::total 87315.846332                       # average ReadExReq miss latency
system.l2.ReadExReq_mshr_misses::.cpu.data        18976                       # number of ReadExReq MSHR misses
system.l2.ReadExReq_mshr_misses::total          18976                       # number of ReadExReq MSHR misses
system.l2.ReadExReq_mshr_miss_latency::.cpu.data   1467145500                       # number of ReadExReq MSHR miss cycles
system.l2.ReadExReq_mshr_miss_latency::total   1467145500                       # number of ReadExReq MSHR miss cycles
system.l2.ReadExReq_mshr_miss_rate::.cpu.data            1                       # mshr miss rate for ReadExReq accesses
system.l2.ReadExReq_mshr_miss_rate::total            1                       # mshr miss rate for ReadExReq accesses
system.l2.ReadExReq_avg_mshr_miss_latency::.cpu.data 77315.846332                       # average ReadExReq mshr miss latency
system.l2.ReadExReq_avg_mshr_miss_latency::total 77315.846332                       # average ReadExReq mshr miss latency
system.l2.ReadCleanReq_hits::.cpu.inst             11                       # number of ReadCleanReq hits
system.l2.ReadCleanReq_hits::total                 11                       # number of ReadCleanReq hits
system.l2.ReadCleanReq_misses::.cpu.inst          333                       # number of ReadCleanReq misses
system.l2.ReadCleanReq_misses::total              333                       # number of ReadCleanReq misses
system.l2.ReadCleanReq_miss_latency::.cpu.inst     27383500                       # number of ReadCleanReq miss cycles
system.l2.ReadCleanReq_miss_latency::total     27383500                       # number of ReadCleanReq miss cycles
system.l2.ReadCleanReq_accesses::.cpu.inst          344                       # number of ReadCleanReq accesses(hits+misses)
system.l2.ReadCleanReq_accesses::total            344                       # number of ReadCleanReq accesses(hits+misses)
system.l2.ReadCleanReq_miss_rate::.cpu.inst     0.968023                       # miss rate for ReadCleanReq accesses
system.l2.ReadCleanReq_miss_rate::total      0.968023                       # miss rate for ReadCleanReq accesses
system.l2.ReadCleanReq_avg_miss_latency::.cpu.inst 82232.732733                       # average ReadCleanReq miss latency
system.l2.ReadCleanReq_avg_miss_latency::total 82232.732733                       # average ReadCleanReq miss latency
system.l2.ReadCleanReq_mshr_misses::.cpu.inst          333                       # number of ReadCleanReq MSHR misses
system.l2.ReadCleanReq_mshr_misses::total          333                       # number of ReadCleanReq MSHR misses
system.l2.ReadCleanReq_mshr_miss_latency::.cpu.inst     24053500                       # number of ReadCleanReq MSHR miss cycles
system.l2.ReadCleanReq_mshr_miss_latency::total     24053500                       # number of ReadCleanReq MSHR miss cycles
system.l2.ReadCleanReq_mshr_miss_rate::.cpu.inst     0.968023                       # mshr miss rate for ReadCleanReq accesses
system.l2.ReadCleanReq_mshr_miss_rate::total     0.968023                       # mshr miss rate for ReadCleanReq accesses
system.l2.ReadCleanReq_avg_mshr_miss_latency::.cpu.inst 72232.732733                       # average ReadCleanReq mshr miss latency
system.l2.ReadCleanReq_avg_mshr_miss_latency::total 72232.732733                       # average ReadCleanReq mshr miss latency
system.l2.ReadSharedReq_hits::.cpu.data          9731                       # number of ReadSharedReq hits
system.l2.ReadSharedReq_hits::total              9731                       # number of ReadSharedReq hits
system.l2.ReadSharedReq_misses::.cpu.data          133                       # number of ReadSharedReq misses
system.l2.ReadSharedReq_misses::total             133                       # number of ReadSharedReq misses
system.l2.ReadSharedReq_miss_latency::.cpu.data     11638500                       # number of ReadSharedReq miss cycles
system.l2.ReadSharedReq_miss_latency::total     11638500                       # number of ReadSharedReq miss cycles
system.l2.ReadSharedReq_accesses::.cpu.data         9864                       # number of ReadSharedReq accesses(hits+misses)
system.l2.ReadSharedReq_accesses::total          9864                       # number of ReadSharedReq accesses(hits+misses)
system.l2.ReadSharedReq_miss_rate::.cpu.data     0.013483                       # miss rate for ReadSharedReq accesses
system.l2.ReadSharedReq_miss_rate::total     0.013483                       # miss rate for ReadSharedReq accesses
system.l2.ReadSharedReq_avg_miss_latency::.cpu.data 87507.518797                       # average ReadSharedReq miss latency
system.l2.ReadSharedReq_avg_miss_latency::total 87507.518797                       # average ReadSharedReq miss latency
system.l2.ReadSharedReq_mshr_hits::.cpu.data            3                       # number of ReadSharedReq MSHR hits
system.l2.ReadSharedReq_mshr_hits::total            3                       # number of ReadSharedReq MSHR hits
system.l2.ReadSharedReq_mshr_misses::.cpu.data          130                       # number of ReadSharedReq MSHR misses
system.l2.ReadSharedReq_mshr_misses::total          130                       # number of ReadSharedReq MSHR misses
system.l2.ReadSharedReq_mshr_miss_latency::.cpu.data     10106500                       # number of ReadSharedReq MSHR miss cycles
system.l2.ReadSharedReq_mshr_miss_latency::total     10106500                       # number of ReadSharedReq MSHR miss cycles
system.l2.ReadSharedReq_mshr_miss_rate::.cpu.data     0.013179                       # mshr miss rate for ReadSharedReq accesses
system.l2.ReadSharedReq_mshr_miss_rate::total     0.013179                       # mshr miss rate for ReadSharedReq accesses
system.l2.ReadSharedReq_avg_mshr_miss_latency::.cpu.data 77742.307692                       # average ReadSharedReq mshr miss latency
system.l2.ReadSharedReq_avg_mshr_miss_latency::total 77742.307692                       # average ReadSharedReq mshr miss latency
system.l2.power_state.pwrStateResidencyTicks::UNDEFINED  54202460000                       # Cumulative time (in ticks) in various power states
system.l2.tags.tagsinuse                 13598.755165                       # Cycle average of tags in use
system.l2.tags.total_refs                       56976                       # Total number of references to valid blocks.
system.l2.tags.sampled_refs                     19439                       # Sample count of references to valid blocks.
system.l2.tags.avg_refs                      2.931015                       # Average number of references to valid blocks.
system.l2.tags.warmup_cycle                     82000                       # Cycle when the warmup percentage was hit.
system.l2.tags.occ_blocks::.cpu.inst       332.738918                       # Average occupied blocks per requestor
system.l2.tags.occ_blocks::.cpu.data     13266.016247                       # Average occupied blocks per requestor
system.l2.tags.occ_percent::.cpu.inst        0.010154                       # Average percentage of cache occupancy
system.l2.tags.occ_percent::.cpu.data        0.404847                       # Average percentage of cache occupancy
system.l2.tags.occ_percent::total            0.415001                       # Average percentage of cache occupancy
system.l2.tags.occ_task_id_blocks::1024         19439                       # Occupied blocks per task id
system.l2.tags.age_task_id_blocks_1024::0            2                       # Occupied blocks per task id
system.l2.tags.age_task_id_blocks_1024::1           17                       # Occupied blocks per task id
system.l2.tags.age_task_id_blocks_1024::2          174                       # Occupied blocks per task id
system.l2.tags.age_task_id_blocks_1024::3         1759                       # Occupied blocks per task id
system.l2.tags.age_task_id_blocks_1024::4        17487                       # Occupied blocks per task id
system.l2.tags.occ_task_id_percent::1024     0.593231                       # Percentage of cache occupancy per task id
system.l2.tags.tag_accesses                    931103                       # Number of tag accesses
system.l2.tags.data_accesses                   931103                       # Number of data accesses
system.l2.tags.power_state.pwrStateResidencyTicks::UNDEFINED  54202460000                       # Cumulative time (in ticks) in various power states
system.mem_ctrls.avgPriority_.cpu.inst::samples       666.00                       # Average QoS priority value for accepted requests
system.mem_ctrls.avgPriority_.cpu.data::samples     38212.00                       # Average QoS priority value for accepted requests
system.mem_ctrls.priorityMinLatency      0.000000018750                       # per QoS priority minimum request to response latency (s)
system.mem_ctrls.priorityMaxLatency      0.000000584500                       # per QoS priority maximum request to response latency (s)
system.mem_ctrls.numReadWriteTurnArounds            0                       # Number of turnarounds from READ to WRITE
system.mem_ctrls.numWriteReadTurnArounds            0                       # Number of turnarounds from WRITE to READ
system.mem_ctrls.numStayReadState               72235                       # Number of times bus staying in READ state
system.mem_ctrls.numStayWriteState                  0                       # Number of times bus staying in WRITE state
system.mem_ctrls.readReqs                       19439                       # Number of read requests accepted
system.mem_ctrls.writeReqs                          0                       # Number of write requests accepted
system.mem_ctrls.readBursts                     38878                       # Number of controller read bursts, including those serviced by the write queue
system.mem_ctrls.writeBursts                        0                       # Number of controller write bursts, including those merged in the write queue
system.mem_ctrls.servicedByWrQ                      0                       # Number of controller read bursts serviced by the write queue
system.mem_ctrls.mergedWrBursts                     0                       # Number of controller write bursts merged with an existing one
system.mem_ctrls.neitherReadNorWriteReqs            0                       # Number of requests that are neither read nor write
system.mem_ctrls.avgRdQLen                       2.00                       # Average read queue length when enqueuing
system.mem_ctrls.avgWrQLen                       0.00                       # Average write queue length when enqueuing
system.mem_ctrls.numRdRetry                         0                       # Number of times read queue was full causing retry
system.mem_ctrls.numWrRetry                         0                       # Number of times write queue was full causing retry
system.mem_ctrls.readPktSize::0                     0                       # Read request sizes (log2)
system.mem_ctrls.readPktSize::1                     0                       # Read request sizes (log2)
system.mem_ctrls.readPktSize::2                     0                       # Read request sizes (log2)
system.mem_ctrls.readPktSize::3                     0                       # Read request sizes (log2)
system.mem_ctrls.readPktSize::4                     0                       # Read request sizes (log2)
system.mem_ctrls.readPktSize::5                     0                       # Read request sizes (log2)
system.mem_ctrls.readPktSize::6                 38878                       # Read request sizes (log2)
system.mem_ctrls.readPktSize::7                     0                       # Read request sizes (log2)
system.mem_ctrls.writePktSize::0                    0                       # Write request sizes (log2)
system.mem_ctrls.writePktSize::1                    0                       # Write request sizes (log2)
system.mem_ctrls.writePktSize::2                    0                       # Write request sizes (log2)
system.mem_ctrls.writePktSize::3                    0                       # Write request sizes (log2)
system.mem_ctrls.writePktSize::4                    0                       # Write request sizes (log2)
system.mem_ctrls.writePktSize::5                    0                       # Write request sizes (log2)
system.mem_ctrls.writePktSize::6                    0                       # Write request sizes (log2)
system.mem_ctrls.writePktSize::7                    0                       # Write request sizes (log2)
system.mem_ctrls.rdQLenPdf::0                   19380                       # What read queue length does an incoming req see
system.mem_ctrls.rdQLenPdf::1                   19382                       # What read queue length does an incoming req see
system.mem_ctrls.rdQLenPdf::2                      53                       # What read queue length does an incoming req see
system.mem_ctrls.rdQLenPdf::3                      51                       # What read queue length does an incoming req see
system.mem_ctrls.rdQLenPdf::4                       6                       # What read queue length does an incoming req see
system.mem_ctrls.rdQLenPdf::5                       6                       # What read queue length does an incoming req see
system.mem_ctrls.rdQLenPdf::6                       0                       # What read queue length does an incoming req see
system.mem_ctrls.rdQLenPdf::7                       0                       # What read queue length does an incoming req see
system.mem_ctrls.rdQLenPdf::8                       0                       # What read queue length does an incoming req see
system.mem_ctrls.rdQLenPdf::9                       0                       # What read queue length does an incoming req see
system.mem_ctrls.rdQLenPdf::10                      0                       # What read queue length does an incoming req see
system.mem_ctrls.rdQLenPdf::11                      0                       # What read queue length does an incoming req see
system.mem_ctrls.rdQLenPdf::12                      0                       # What read queue length does an incoming req see
system.mem_ctrls.rdQLenPdf::13                      0                       # What read queue length does an incoming req see
system.mem_ctrls.rdQLenPdf::14                      0                       # What read queue length does an incoming req see
system.mem_ctrls.rdQLenPdf::15                      0                       # What read queue length does an incoming req see
[...]
system.mem_ctrls.dram.bw_read::.cpu.inst       786385                       # Total read bandwidth from this memory (bytes/s)
system.mem_ctrls.dram.bw_read::.cpu.data     45119133                       # Total read bandwidth from this memory (bytes/s)
system.mem_ctrls.dram.bw_read::total         45905518                       # Total read bandwidth from this memory (bytes/s)
system.mem_ctrls.dram.bw_inst_read::.cpu.inst       786385                       # Instruction read bandwidth from this memory (bytes/s)
system.mem_ctrls.dram.bw_inst_read::total       786385                       # Instruction read bandwidth from this memory (bytes/s)
system.mem_ctrls.dram.bw_total::.cpu.inst       786385                       # Total bandwidth to/from this memory (bytes/s)
system.mem_ctrls.dram.bw_total::.cpu.data     45119133                       # Total bandwidth to/from this memory (bytes/s)
system.mem_ctrls.dram.bw_total::total        45905518                       # Total bandwidth to/from this memory (bytes/s)
system.mem_ctrls.dram.readBursts                38878                       # Number of DRAM read bursts
system.mem_ctrls.dram.writeBursts                   0                       # Number of DRAM write bursts
system.mem_ctrls.dram.perBankRdBursts::0         2382                       # Per bank write bursts
system.mem_ctrls.dram.perBankRdBursts::1         2350                       # Per bank write bursts
system.mem_ctrls.dram.perBankRdBursts::2         2394                       # Per bank write bursts
system.mem_ctrls.dram.perBankRdBursts::3         2494                       # Per bank write bursts
system.mem_ctrls.dram.perBankRdBursts::4         2476                       # Per bank write bursts
system.mem_ctrls.dram.perBankRdBursts::5         2482                       # Per bank write bursts
system.mem_ctrls.dram.perBankRdBursts::6         2474                       # Per bank write bursts
system.mem_ctrls.dram.perBankRdBursts::7         2524                       # Per bank write bursts
system.mem_ctrls.dram.perBankRdBursts::8         2502                       # Per bank write bursts
system.mem_ctrls.dram.perBankRdBursts::9         2466                       # Per bank write bursts
system.mem_ctrls.dram.perBankRdBursts::10         2522                       # Per bank write bursts
system.mem_ctrls.dram.perBankRdBursts::11         2448                       # Per bank write bursts
system.mem_ctrls.dram.perBankRdBursts::12         2308                       # Per bank write bursts
system.mem_ctrls.dram.perBankRdBursts::13         2366                       # Per bank write bursts
system.mem_ctrls.dram.perBankRdBursts::14         2336                       # Per bank write bursts
system.mem_ctrls.dram.perBankRdBursts::15         2354                       # Per bank write bursts
system.mem_ctrls.dram.perBankWrBursts::0            0                       # Per bank write bursts
system.mem_ctrls.dram.perBankWrBursts::1            0                       # Per bank write bursts
system.mem_ctrls.dram.perBankWrBursts::2            0                       # Per bank write bursts
system.mem_ctrls.dram.perBankWrBursts::3            0                       # Per bank write bursts
system.mem_ctrls.dram.perBankWrBursts::4            0                       # Per bank write bursts
system.mem_ctrls.dram.perBankWrBursts::5            0                       # Per bank write bursts
system.mem_ctrls.dram.perBankWrBursts::6            0                       # Per bank write bursts
system.mem_ctrls.dram.perBankWrBursts::7            0                       # Per bank write bursts
system.mem_ctrls.dram.perBankWrBursts::8            0                       # Per bank write bursts
system.mem_ctrls.dram.perBankWrBursts::9            0                       # Per bank write bursts
system.mem_ctrls.dram.perBankWrBursts::10            0                       # Per bank write bursts
system.mem_ctrls.dram.perBankWrBursts::11            0                       # Per bank write bursts
system.mem_ctrls.dram.perBankWrBursts::12            0                       # Per bank write bursts
system.mem_ctrls.dram.perBankWrBursts::13            0                       # Per bank write bursts
system.mem_ctrls.dram.perBankWrBursts::14            0                       # Per bank write bursts
system.mem_ctrls.dram.perBankWrBursts::15            0                       # Per bank write bursts
system.mem_ctrls.dram.totQLat               577235000                       # Total ticks spent queuing
system.mem_ctrls.dram.totBusLat             194390000                       # Total ticks spent in databus transfers
system.mem_ctrls.dram.totMemAccLat         1306197500                       # Total ticks spent from burst creation until serviced by the DRAM
system.mem_ctrls.dram.avgQLat                14847.34                       # Average queueing delay per DRAM burst
system.mem_ctrls.dram.avgBusLat               5000.00                       # Average bus latency per DRAM burst
system.mem_ctrls.dram.avgMemAccLat           33597.34                       # Average memory access latency per DRAM burst
system.mem_ctrls.dram.readRowHits               30498                       # Number of row buffer hits during reads
system.mem_ctrls.dram.writeRowHits                  0                       # Number of row buffer hits during writes
system.mem_ctrls.dram.readRowHitRate            78.45                       # Row buffer hit rate for reads
system.mem_ctrls.dram.writeRowHitRate             nan                       # Row buffer hit rate for writes
system.mem_ctrls.dram.bytesPerActivate::samples         8380                       # Bytes accessed per row activation
system.mem_ctrls.dram.bytesPerActivate::mean   296.920286                       # Bytes accessed per row activation
system.mem_ctrls.dram.bytesPerActivate::gmean   238.747995                       # Bytes accessed per row activation
system.mem_ctrls.dram.bytesPerActivate::stdev   229.253937                       # Bytes accessed per row activation
system.mem_ctrls.dram.bytesPerActivate::128-255         3235     38.60%     38.60% # Bytes accessed per row activation
system.mem_ctrls.dram.bytesPerActivate::256-383         3282     39.16%     77.77% # Bytes accessed per row activation
system.mem_ctrls.dram.bytesPerActivate::384-511          517      6.17%     83.94% # Bytes accessed per row activation
system.mem_ctrls.dram.bytesPerActivate::512-639          159      1.90%     85.84% # Bytes accessed per row activation
system.mem_ctrls.dram.bytesPerActivate::640-767          405      4.83%     90.67% # Bytes accessed per row activation
system.mem_ctrls.dram.bytesPerActivate::768-895          329      3.93%     94.59% # Bytes accessed per row activation
system.mem_ctrls.dram.bytesPerActivate::896-1023          170      2.03%     96.62% # Bytes accessed per row activation
system.mem_ctrls.dram.bytesPerActivate::1024-1151          283      3.38%    100.00% # Bytes accessed per row activation
system.mem_ctrls.dram.bytesPerActivate::total         8380                       # Bytes accessed per row activation
system.mem_ctrls.dram.bytesRead               2488192                       # Total number of bytes read from DRAM
system.mem_ctrls.dram.bytesWritten                  0                       # Total number of bytes written to DRAM
system.mem_ctrls.dram.avgRdBW               45.905518                       # Average DRAM read bandwidth in MiBytes/s
system.mem_ctrls.dram.avgWrBW                       0                       # Average DRAM write bandwidth in MiBytes/s
system.mem_ctrls.dram.peakBW                 12800.00                       # Theoretical peak bandwidth in MiByte/s
system.mem_ctrls.dram.busUtil                    0.36                       # Data bus utilization in percentage
system.mem_ctrls.dram.busUtilRead                0.36                       # Data bus utilization in percentage for reads
system.mem_ctrls.dram.busUtilWrite               0.00                       # Data bus utilization in percentage for writes
system.mem_ctrls.dram.pageHitRate               78.45                       # Row buffer hit rate, read and write combined
system.mem_ctrls.dram.power_state.pwrStateResidencyTicks::UNDEFINED  54202460000                       # Cumulative time (in ticks) in various power states
system.mem_ctrls.dram.rank0.actEnergy        30302160                       # Energy for activate commands per rank (pJ)
system.mem_ctrls.dram.rank0.preEnergy        16105980                       # Energy for precharge commands per rank (pJ)
system.mem_ctrls.dram.rank0.readEnergy      139772640                       # Energy for read commands per rank (pJ)
system.mem_ctrls.dram.rank0.writeEnergy             0                       # Energy for write commands per rank (pJ)
system.mem_ctrls.dram.rank0.refreshEnergy 4278509040.000000                       # Energy for refresh commands per rank (pJ)
system.mem_ctrls.dram.rank0.actBackEnergy   9799799100                       # Energy for active background per rank (pJ)
system.mem_ctrls.dram.rank0.preBackEnergy  12561282240                       # Energy for precharge background per rank (pJ)
system.mem_ctrls.dram.rank0.actPowerDownEnergy            0                       # Energy for active power-down per rank (pJ)
system.mem_ctrls.dram.rank0.prePowerDownEnergy            0                       # Energy for precharge power-down per rank (pJ)
system.mem_ctrls.dram.rank0.selfRefreshEnergy            0                       # Energy for self refresh per rank (pJ)
system.mem_ctrls.dram.rank0.totalEnergy   26825771160                       # Total energy per rank (pJ)
system.mem_ctrls.dram.rank0.averagePower   494.917964                       # Core power per rank (mW)
system.mem_ctrls.dram.rank0.totalIdleTime            0                       # Total Idle time Per DRAM Rank
system.mem_ctrls.dram.rank0.pwrStateTime::IDLE  32564846250                       # Time in different power states
system.mem_ctrls.dram.rank0.pwrStateTime::REF   1809860000                       # Time in different power states
system.mem_ctrls.dram.rank0.pwrStateTime::SREF            0                       # Time in different power states
system.mem_ctrls.dram.rank0.pwrStateTime::PRE_PDN            0                       # Time in different power states
system.mem_ctrls.dram.rank0.pwrStateTime::ACT  19827753750                       # Time in different power states
system.mem_ctrls.dram.rank0.pwrStateTime::ACT_PDN            0                       # Time in different power states
system.mem_ctrls.dram.rank1.actEnergy        29531040                       # Energy for activate commands per rank (pJ)
system.mem_ctrls.dram.rank1.preEnergy        15696120                       # Energy for precharge commands per rank (pJ)
system.mem_ctrls.dram.rank1.readEnergy      137816280                       # Energy for read commands per rank (pJ)
system.mem_ctrls.dram.rank1.writeEnergy             0                       # Energy for write commands per rank (pJ)
system.mem_ctrls.dram.rank1.refreshEnergy 4278509040.000000                       # Energy for refresh commands per rank (pJ)
system.mem_ctrls.dram.rank1.actBackEnergy   9755242200                       # Energy for active background per rank (pJ)
system.mem_ctrls.dram.rank1.preBackEnergy  12598803840                       # Energy for precharge background per rank (pJ)
system.mem_ctrls.dram.rank1.actPowerDownEnergy            0                       # Energy for active power-down per rank (pJ)
system.mem_ctrls.dram.rank1.prePowerDownEnergy            0                       # Energy for precharge power-down per rank (pJ)
system.mem_ctrls.dram.rank1.selfRefreshEnergy            0                       # Energy for self refresh per rank (pJ)
system.mem_ctrls.dram.rank1.totalEnergy   26815598520                       # Total energy per rank (pJ)
system.mem_ctrls.dram.rank1.averagePower   494.730286                       # Core power per rank (mW)
system.mem_ctrls.dram.rank1.totalIdleTime            0                       # Total Idle time Per DRAM Rank
system.mem_ctrls.dram.rank1.pwrStateTime::IDLE  32663237250                       # Time in different power states
system.mem_ctrls.dram.rank1.pwrStateTime::REF   1809860000                       # Time in different power states
system.mem_ctrls.dram.rank1.pwrStateTime::SREF            0                       # Time in different power states
system.mem_ctrls.dram.rank1.pwrStateTime::PRE_PDN            0                       # Time in different power states
system.mem_ctrls.dram.rank1.pwrStateTime::ACT  19729362750                       # Time in different power states
system.mem_ctrls.dram.rank1.pwrStateTime::ACT_PDN            0                       # Time in different power states
system.mem_ctrls.power_state.pwrStateResidencyTicks::UNDEFINED  54202460000                       # Cumulative time (in ticks) in various power states
system.membus.trans_dist::ReadResp                463                       # Transaction distribution
system.membus.trans_dist::ReadExReq             18976                       # Transaction distribution
system.membus.trans_dist::ReadExResp            18976                       # Transaction distribution
system.membus.trans_dist::ReadSharedReq           463                       # Transaction distribution
system.membus.pkt_count_system.l2.mem_side_port::system.mem_ctrls.port        38878                       # Packet count per connected requestor and responder (bytes)
system.membus.pkt_count::total                  38878                       # Packet count per connected requestor and responder (bytes)
system.membus.pkt_size_system.l2.mem_side_port::system.mem_ctrls.port      2488192                       # Cumulative packet size per connected requestor and responder (bytes)
system.membus.pkt_size::total                 2488192                       # Cumulative packet size per connected requestor and responder (bytes)
system.membus.snoops                                0                       # Total snoops (count)
system.membus.snoopTraffic                          0                       # Total snoop traffic (bytes)
system.membus.snoop_fanout::samples             19439                       # Request fanout histogram
system.membus.snoop_fanout::mean                    0                       # Request fanout histogram
system.membus.snoop_fanout::stdev                   0                       # Request fanout histogram
system.membus.snoop_fanout::underflows              0      0.00%      0.00% # Request fanout histogram
system.membus.snoop_fanout::0                   19439    100.00%    100.00% # Request fanout histogram
system.membus.snoop_fanout::1                       0      0.00%    100.00% # Request fanout histogram
system.membus.snoop_fanout::overflows               0      0.00%    100.00% # Request fanout histogram
system.membus.snoop_fanout::min_value               0                       # Request fanout histogram
system.membus.snoop_fanout::max_value               0                       # Request fanout histogram
system.membus.snoop_fanout::total               19439                       # Request fanout histogram
system.membus.power_state.pwrStateResidencyTicks::UNDEFINED  54202460000                       # Cumulative time (in ticks) in various power states
system.membus.reqLayer0.occupancy            24882000                       # Layer occupancy (ticks)
system.membus.reqLayer0.utilization               0.0                       # Layer utilization (%)
system.membus.respLayer1.occupancy          181828500                       # Layer occupancy (ticks)
system.membus.respLayer1.utilization              0.3                       # Layer utilization (%)
system.tol2bus.trans_dist::ReadResp             10208                       # Transaction distribution
system.tol2bus.trans_dist::WritebackDirty        27315                       # Transaction distribution
system.tol2bus.trans_dist::WritebackClean            1                       # Transaction distribution
system.tol2bus.trans_dist::CleanEvict             501                       # Transaction distribution
system.tol2bus.trans_dist::ReadExReq            18976                       # Transaction distribution
system.tol2bus.trans_dist::ReadExResp           18976                       # Transaction distribution
system.tol2bus.trans_dist::ReadCleanReq           344                       # Transaction distribution
system.tol2bus.trans_dist::ReadSharedReq         9864                       # Transaction distribution
system.tol2bus.pkt_count_system.cpu.icache.mem_side_port::system.l2.cpu_side_port          689                       # Packet count per connected requestor and responder (bytes)
system.tol2bus.pkt_count_system.cpu.dcache.mem_side_port::system.l2.cpu_side_port        85496                       # Packet count per connected requestor and responder (bytes)
system.tol2bus.pkt_count::total                 86185                       # Packet count per connected requestor and responder (bytes)
system.tol2bus.pkt_size_system.cpu.icache.mem_side_port::system.l2.cpu_side_port        44160                       # Cumulative packet size per connected requestor and responder (bytes)
system.tol2bus.pkt_size_system.cpu.dcache.mem_side_port::system.l2.cpu_side_port      7187840                       # Cumulative packet size per connected requestor and responder (bytes)
system.tol2bus.pkt_size::total                7232000                       # Cumulative packet size per connected requestor and responder (bytes)
system.tol2bus.snoops                               0                       # Total snoops (count)
system.tol2bus.snoopTraffic                         0                       # Total snoop traffic (bytes)
system.tol2bus.snoop_fanout::samples            29184                       # Request fanout histogram
system.tol2bus.snoop_fanout::mean            0.000857                       # Request fanout histogram
system.tol2bus.snoop_fanout::stdev           0.029256                       # Request fanout histogram
system.tol2bus.snoop_fanout::underflows             0      0.00%      0.00% # Request fanout histogram
system.tol2bus.snoop_fanout::0                  29159     99.91%     99.91% # Request fanout histogram
system.tol2bus.snoop_fanout::1                     25      0.09%    100.00% # Request fanout histogram
system.tol2bus.snoop_fanout::2                      0      0.00%    100.00% # Request fanout histogram
system.tol2bus.snoop_fanout::overflows              0      0.00%    100.00% # Request fanout histogram
system.tol2bus.snoop_fanout::min_value              0                       # Request fanout histogram
system.tol2bus.snoop_fanout::max_value              1                       # Request fanout histogram
system.tol2bus.snoop_fanout::total              29184                       # Request fanout histogram
system.tol2bus.power_state.pwrStateResidencyTicks::UNDEFINED  54202460000                       # Cumulative time (in ticks) in various power states
system.tol2bus.reqLayer0.occupancy           83132500                       # Layer occupancy (ticks)
system.tol2bus.reqLayer0.utilization              0.2                       # Layer utilization (%)
system.tol2bus.respLayer0.occupancy            860000                       # Layer occupancy (ticks)
system.tol2bus.respLayer0.utilization             0.0                       # Layer utilization (%)
system.tol2bus.respLayer1.occupancy          72101497                       # Layer occupancy (ticks)
system.tol2bus.respLayer1.utilization             0.1                       # Layer utilization (%)
system.voltage_domain.voltage                       1                       # Voltage in Volts

---------- End Simulation Statistics   ----------
